data_crystal

_cell_length_a 22.43900
_cell_length_b 22.41192
_cell_length_c 22.94964
_cell_angle_alpha 91.42635
_cell_angle_beta  89.99921
_cell_angle_gamma 89.73130

_symmetry_space_group_name_	'P 1'
_symmetry_space_group_name_H-M	'P 1'

loop_
_symmetry_equiv_pos_as_xyz
  x,y,z

loop_
_atom_site_label
_atom_site_type_symbol
_atom_site_fract_x
_atom_site_fract_y
_atom_site_fract_z
_atom_site_charge
C 	C 	0.96536 0.18973 0.31502 0.30600
C 	C 	0.93545 0.17070 0.05801 0.30800
C 	C 	0.03587 0.09018 0.20139 0.30300
C 	C 	0.85052 0.27071 0.16645 0.28500
C 	C 	0.10933 0.25310 0.11580 0.30800
C 	C 	0.02865 0.35357 0.21708 0.27500
Ni	Ni	0.92666 0.16287 0.18783 1.11100
Ni	Ni	0.97815 0.27762 0.12193 1.12100
Ni	Ni	0.05369 0.22073 0.22433 1.11900
O 	O 	0.94290 0.14996 0.27699 -0.38300
O 	O 	0.00978 0.22583 0.30121 -0.39400
O 	O 	0.06524 0.28967 0.10301 -0.39000
O 	O 	0.89883 0.16047 0.10114 -0.37900
O 	O 	0.98076 0.20679 0.06549 -0.38300
O 	O 	0.06857 0.31011 0.22471 -0.38700
O 	O 	0.99406 0.10373 0.16432 -0.38100
O 	O 	0.05723 0.13114 0.23749 -0.38800
O 	O 	0.98515 0.34843 0.17755 -0.38100
O 	O 	0.85868 0.22492 0.20138 -0.37900
O 	O 	0.88646 0.27857 0.12099 -0.38200
O 	O 	0.10026 0.20842 0.15059 -0.40000
O 	O 	0.97836 0.22818 0.18789 -0.71400
H 	H 	0.95822 0.25487 0.21650 0.15800
C 	C 	0.93813 0.16995 0.81976 0.29300
C 	C 	0.94508 0.20191 0.56188 0.31100
C 	C 	0.02900 0.09891 0.70130 0.29500
C 	C 	0.84297 0.27986 0.67102 0.28900
C 	C 	0.10477 0.27035 0.65288 0.31000
C 	C 	0.01491 0.35952 0.75448 0.28700
Ni	Ni	0.91812 0.16966 0.68553 1.11000
Ni	Ni	0.97501 0.29512 0.64895 1.12300
Ni	Ni	0.03558 0.22366 0.75085 1.11600
O 	O 	0.92024 0.13970 0.77205 -0.37700
O 	O 	0.97885 0.21274 0.81804 -0.37600
O 	O 	0.06269 0.31084 0.64842 -0.40700
O 	O 	0.90366 0.18227 0.59685 -0.37900
O 	O 	0.98810 0.23592 0.58209 -0.38600
O 	O 	0.04562 0.31216 0.77306 -0.38500
O 	O 	0.99073 0.11678 0.66237 -0.37600
O 	O 	0.04066 0.13252 0.74769 -0.38500
O 	O 	0.97113 0.35446 0.71563 -0.38400
O 	O 	0.84591 0.22761 0.69734 -0.37900
O 	O 	0.88550 0.29600 0.63433 -0.38900
O 	O 	0.09774 0.22485 0.68742 -0.40000
O 	O 	0.96675 0.23506 0.70451 -0.71800
H 	H 	0.94109 0.25599 0.73336 0.16000
C 	C 	0.16472 0.69686 0.17794 0.28900
C 	C 	0.18905 0.67923 0.43549 0.30800
C 	C 	0.09272 0.59333 0.28581 0.30800
C 	C 	0.27044 0.77983 0.33200 0.28300
C 	C 	0.01133 0.75424 0.37540 0.29600
C 	C 	0.09338 0.85558 0.27956 0.28400
Ni	Ni	0.19973 0.66889 0.30459 1.11000
Ni	Ni	0.14186 0.78260 0.37425 1.11900
Ni	Ni	0.07153 0.72303 0.26714 1.12000
O 	O 	0.18640 0.65634 0.21404 -0.37900
O 	O 	0.11695 0.72972 0.19151 -0.38300
O 	O 	0.05374 0.79184 0.39151 -0.38300
O 	O 	0.22578 0.66694 0.39212 -0.37700
O 	O 	0.14148 0.71207 0.42742 -0.38600
O 	O 	0.05390 0.81198 0.27085 -0.39100
O 	O 	0.13438 0.60731 0.32354 -0.38400
O 	O 	0.07231 0.63334 0.24991 -0.38400
O 	O 	0.13378 0.85324 0.32211 -0.39200
O 	O 	0.26572 0.73287 0.29573 -0.38000
O 	O 	0.23336 0.78665 0.37711 -0.38700
O 	O 	0.02308 0.70971 0.33886 -0.39700
O 	O 	0.14537 0.73261 0.30630 -0.71700
H 	H 	0.16530 0.75975 0.27947 0.15200
C 	C 	0.16719 0.67287 0.67441 0.28900
C 	C 	0.18048 0.71000 0.93179 0.30600
C 	C 	0.07970 0.60411 0.79727 0.30500
C 	C 	0.27806 0.77293 0.81766 0.29200
C 	C 	0.01637 0.78207 0.85331 0.30100
C 	C 	0.10450 0.86002 0.74100 0.28800
Ni	Ni	0.19350 0.67007 0.80598 1.11100
Ni	Ni	0.14730 0.80117 0.84719 1.12000
Ni	Ni	0.07414 0.72751 0.75119 1.12000
O 	O 	0.18216 0.63914 0.71923 -0.37600
O 	O 	0.12296 0.71257 0.67809 -0.38000
O 	O 	0.06005 0.82098 0.85680 -0.39300
O 	O 	0.21697 0.68551 0.89321 -0.38000
O 	O 	0.13806 0.74638 0.91548 -0.38600
O 	O 	0.06430 0.81623 0.73505 -0.38900
O 	O 	0.12099 0.62178 0.83389 -0.38700
O 	O 	0.06621 0.63682 0.75233 -0.38600
O 	O 	0.14768 0.85822 0.78088 -0.39300
O 	O 	0.26525 0.72378 0.78686 -0.38100
O 	O 	0.23866 0.79868 0.85417 -0.38200
O 	O 	0.02225 0.73238 0.82224 -0.39800
O 	O 	0.14731 0.73773 0.79127 -0.72100
H 	H 	0.17084 0.75625 0.76036 0.16000
C 	C 	0.66203 0.92036 0.57178 0.28900
C 	C 	0.68056 0.91966 0.31300 0.31300
C 	C 	0.58807 0.01974 0.45982 0.30400
C 	C 	0.76817 0.83297 0.41418 0.29200
C 	C 	0.50658 0.86035 0.37765 0.30800
C 	C 	0.58206 0.75752 0.48127 0.29000
Ni	Ni	0.69333 0.94087 0.44305 1.11100
Ni	Ni	0.63404 0.82271 0.38371 1.11800
Ni	Ni	0.56599 0.89224 0.48666 1.12000
O 	O 	0.68280 0.95874 0.53323 -0.37400
O 	O 	0.61259 0.88917 0.56188 -0.37900
O 	O 	0.54485 0.81583 0.37133 -0.39300
O 	O 	0.71706 0.93649 0.35496 -0.38600
O 	O 	0.63341 0.88763 0.32408 -0.39100
O 	O 	0.54511 0.80391 0.48925 -0.38700
O 	O 	0.62853 0.00274 0.42192 -0.38800
O 	O 	0.56924 0.98262 0.49911 -0.37500
O 	O 	0.62568 0.75775 0.44191 -0.38900
O 	O 	0.75830 0.87612 0.45362 -0.38600
O 	O 	0.72563 0.81321 0.37758 -0.38300
O 	O 	0.51812 0.90485 0.41417 -0.39200
O 	O 	0.63939 0.87787 0.44738 -0.71900
H 	H 	0.65973 0.85246 0.47570 0.15900
C 	C 	0.66214 0.93316 0.07200 0.29100
C 	C 	0.68492 0.90324 0.81512 0.31000
C 	C 	0.58248 0.01005 0.94994 0.29600
C 	C 	0.77847 0.83646 0.92951 0.29400
C 	C 	0.51728 0.83093 0.88633 0.31300
C 	C 	0.60235 0.75264 0.00177 0.28200
Ni	Ni	0.69414 0.94003 0.94213 1.11200
Ni	Ni	0.64813 0.81053 0.89637 1.12000
Ni	Ni	0.57121 0.88430 0.99011 1.12100
O 	O 	0.67971 0.96827 0.02926 -0.37700
O 	O 	0.61604 0.89646 0.06574 -0.38200
O 	O 	0.56131 0.79202 0.88268 -0.39200
O 	O 	0.72022 0.92642 0.85531 -0.38000
O 	O 	0.64181 0.86705 0.82919 -0.38500
O 	O 	0.56055 0.79542 0.00365 -0.39000
O 	O 	0.62358 0.99119 0.91356 -0.38100
O 	O 	0.56360 0.97521 0.99127 -0.37400
O 	O 	0.64539 0.75211 0.96162 -0.38800
O 	O 	0.76436 0.88404 0.96218 -0.38100
O 	O 	0.73969 0.81118 0.89235 -0.38300
O 	O 	0.52327 0.88105 0.91657 -0.39500
O 	O 	0.64626 0.87323 0.95327 -0.71900
H 	H 	0.66819 0.85364 0.98476 0.15800
C 	C 	0.45726 0.43216 0.93935 0.29300
C 	C 	0.44179 0.41433 0.19665 0.31500
C 	C 	0.53798 0.51571 0.05953 0.31000
C 	C 	0.35073 0.33608 0.08560 0.29100
C 	C 	0.61226 0.34962 0.12326 0.30900
C 	C 	0.53243 0.25385 0.01396 0.28900
Ni	Ni	0.42892 0.44299 0.07017 1.11000
Ni	Ni	0.48345 0.31910 0.11613 1.11900
Ni	Ni	0.55239 0.38918 0.01814 1.11900
O 	O 	0.43939 0.46782 0.98321 -0.37900
O 	O 	0.50296 0.39457 0.94469 -0.37900
O 	O 	0.57237 0.30683 0.12611 -0.39700
O 	O 	0.40498 0.43362 0.15700 -0.39000
O 	O 	0.48745 0.38049 0.18213 -0.39200
O 	O 	0.56902 0.29987 0.00510 -0.38700
O 	O 	0.49796 0.49836 0.09686 -0.38400
O 	O 	0.55394 0.48015 0.01583 -0.38600
O 	O 	0.48755 0.25707 0.05178 -0.39100
O 	O 	0.36098 0.38283 0.05266 -0.38300
O 	O 	0.39176 0.31503 0.12230 -0.38300
O 	O 	0.60242 0.39569 0.09038 -0.39500
O 	O 	0.47947 0.37729 0.05789 -0.72100
H 	H 	0.45748 0.35463 0.02754 0.16200
C 	C 	0.45078 0.42855 0.44036 0.29300
C 	C 	0.43272 0.42792 0.69884 0.31400
C 	C 	0.52623 0.52282 0.55605 0.31200
C 	C 	0.34368 0.34094 0.59391 0.29300
C 	C 	0.60445 0.36102 0.62939 0.31400
C 	C 	0.52464 0.26028 0.52422 0.29000
Ni	Ni	0.41927 0.44741 0.57028 1.11200
Ni	Ni	0.47657 0.32819 0.62534 1.12000
Ni	Ni	0.54473 0.39438 0.52418 1.12000
O 	O 	0.42980 0.46604 0.48152 -0.37800
O 	O 	0.49683 0.39248 0.44974 -0.38400
O 	O 	0.56542 0.31848 0.63795 -0.38400
O 	O 	0.39555 0.44393 0.65799 -0.38700
O 	O 	0.47927 0.39466 0.68629 -0.38800
O 	O 	0.56309 0.30513 0.51852 -0.38800
O 	O 	0.48533 0.50775 0.59343 -0.38200
O 	O 	0.54387 0.48450 0.51540 -0.38900
O 	O 	0.48274 0.26170 0.56533 -0.38900
O 	O 	0.35409 0.38364 0.55633 -0.38400
O 	O 	0.38512 0.32262 0.63150 -0.38400
O 	O 	0.58990 0.40687 0.59834 -0.39900
O 	O 	0.47164 0.38248 0.56316 -0.71800
H 	H 	0.45094 0.35718 0.53394 0.16200
C 	C 	0.45781 0.48775 0.78677 -0.03500
C 	C 	0.42104 0.44502 0.75971 -0.09800
C 	C 	0.38401 0.40928 0.79413 0.07800
C 	C 	0.39332 0.40824 0.85450 -0.04200
C 	C 	0.43640 0.44509 0.88061 -0.08800
C 	C 	0.46504 0.48875 0.84746 0.07800
C 	C 	0.50683 0.53324 0.87593 -0.19500
H 	H 	0.48409 0.51723 0.76031 0.04600
H 	H 	0.36919 0.37673 0.88065 0.04100
C 	C 	0.33845 0.36837 0.76633 -0.19700
H 	H 	0.51806 0.56977 0.84603 0.06500
H 	H 	0.54876 0.51047 0.88858 0.08000
H 	H 	0.48584 0.55402 0.91534 0.08100
H 	H 	0.36070 0.32711 0.74948 0.07400
H 	H 	0.31538 0.39074 0.73002 0.08000
H 	H 	0.30380 0.35577 0.79829 0.06400
C 	C 	0.39778 0.39263 0.35242 -0.04100
C 	C 	0.43227 0.43688 0.38003 -0.08900
C 	C 	0.45884 0.48168 0.34663 0.07800
C 	C 	0.45844 0.47596 0.28569 -0.03600
C 	C 	0.42976 0.42761 0.25823 -0.09900
C 	C 	0.39535 0.38834 0.29145 0.07700
C 	C 	0.35920 0.33958 0.26225 -0.19600
H 	H 	0.37570 0.35948 0.37833 0.03900
H 	H 	0.48266 0.50758 0.25975 0.04300
C 	C 	0.49076 0.53343 0.37579 -0.19600
H 	H 	0.32788 0.31900 0.29331 0.06500
H 	H 	0.38942 0.30421 0.24453 0.06900
H 	H 	0.33219 0.35800 0.22631 0.08000
H 	H 	0.53254 0.51756 0.39631 0.08300
H 	H 	0.46174 0.55470 0.40959 0.08100
H 	H 	0.50235 0.56824 0.34413 0.06700
C 	C 	0.61755 0.11043 0.98011 -0.03900
C 	C 	0.57210 0.07466 0.95659 -0.09400
C 	C 	0.51560 0.09978 0.94553 0.07700
C 	C 	0.50426 0.15964 0.96186 -0.04100
C 	C 	0.54862 0.19453 0.98901 -0.08400
C 	C 	0.60606 0.16967 0.99798 0.07700
C 	C 	0.65437 0.20479 0.02903 -0.19900
H 	H 	0.66122 0.09107 0.98743 0.03400
H 	H 	0.46038 0.17865 0.95488 0.04400
C 	C 	0.46677 0.06248 0.91823 -0.19400
H 	H 	0.69456 0.17696 0.03685 0.06600
H 	H 	0.63823 0.22130 0.07220 0.08500
H 	H 	0.66835 0.24287 0.00230 0.07800
H 	H 	0.45032 0.02996 0.95015 0.07100
H 	H 	0.48384 0.03788 0.87900 0.07100
H 	H 	0.42861 0.09050 0.90434 0.06300
C 	C 	0.61624 0.59317 0.05152 -0.03600
C 	C 	0.55585 0.57911 0.05909 -0.09500
C 	C 	0.51264 0.62540 0.05926 0.07700
C 	C 	0.53034 0.68395 0.04822 -0.04600
C 	C 	0.58947 0.69637 0.03256 -0.08500
C 	C 	0.63367 0.65195 0.04022 0.07300
C 	C 	0.69905 0.66655 0.03715 -0.19300
H 	H 	0.64966 0.55815 0.05355 0.04100
H 	H 	0.49712 0.71920 0.04811 0.04600
C 	C 	0.44740 0.61260 0.06885 -0.19400
H 	H 	0.72551 0.63626 0.06484 0.06200
H 	H 	0.70766 0.71289 0.05320 0.07100
H 	H 	0.71472 0.66095 0.99149 0.07400
H 	H 	0.44032 0.59712 0.11389 0.06800
H 	H 	0.43164 0.57825 0.03685 0.05800
H 	H 	0.41933 0.65302 0.06320 0.06300
C 	C 	0.67482 0.97249 0.66746 -0.03300
C 	C 	0.68603 0.92218 0.63147 -0.08600
C 	C 	0.70978 0.87000 0.65587 0.07400
C 	C 	0.71412 0.86613 0.71669 -0.03400
C 	C 	0.69632 0.91413 0.75311 -0.09400
C 	C 	0.68003 0.96896 0.72835 0.08400
C 	C 	0.66352 0.02217 0.76661 -0.20400
H 	H 	0.65823 0.01314 0.64842 0.04200
H 	H 	0.72838 0.82464 0.73578 0.03900
C 	C 	0.72619 0.81675 0.61759 -0.19600
H 	H 	0.65916 0.06335 0.74095 0.06800
H 	H 	0.69849 0.03036 0.80006 0.07400
H 	H 	0.62030 0.01396 0.78852 0.08100
H 	H 	0.74955 0.83125 0.57771 0.07400
H 	H 	0.68526 0.79202 0.60481 0.07400
H 	H 	0.75655 0.78592 0.64061 0.06600
C 	C 	0.66762 0.98436 0.22800 -0.02800
C 	C 	0.69420 0.93401 0.25230 -0.09900
C 	C 	0.72456 0.89229 0.21576 0.07700
C 	C 	0.72031 0.89705 0.15508 -0.04100
C 	C 	0.68651 0.94283 0.13078 -0.08800
C 	C 	0.66434 0.98958 0.16718 0.08200
C 	C 	0.63328 0.04267 0.14153 -0.20000
H 	H 	0.64634 0.01761 0.25626 0.03700
H 	H 	0.73925 0.86237 0.12682 0.03900
C 	C 	0.75655 0.83955 0.24091 -0.19600
H 	H 	0.62602 0.07886 0.17479 0.06500
H 	H 	0.58931 0.02900 0.12360 0.07900
H 	H 	0.66076 0.06129 0.10615 0.07800
H 	H 	0.72354 0.80619 0.25517 0.06800
H 	H 	0.78436 0.85397 0.27855 0.08000
H 	H 	0.78670 0.81777 0.20832 0.06600
C 	C 	0.51303 0.10141 0.46502 -0.03500
C 	C 	0.57305 0.08364 0.46646 -0.09300
C 	C 	0.61766 0.12632 0.47971 0.08100
C 	C 	0.60104 0.18495 0.49512 -0.04100
C 	C 	0.54077 0.20179 0.49740 -0.08300
C 	C 	0.49664 0.16074 0.47862 0.07300
C 	C 	0.43215 0.17935 0.47398 -0.19000
H 	H 	0.47898 0.06889 0.45386 0.04000
H 	H 	0.63506 0.21690 0.50792 0.05100
C 	C 	0.68285 0.10931 0.47947 -0.19700
H 	H 	0.40750 0.14915 0.44346 0.06200
H 	H 	0.42826 0.22521 0.45704 0.07100
H 	H 	0.41065 0.17773 0.51748 0.07500
H 	H 	0.69674 0.09462 0.43495 0.06500
H 	H 	0.69106 0.07305 0.51050 0.06800
H 	H 	0.71159 0.14751 0.49283 0.06700
C 	C 	0.60840 0.66726 0.53633 -0.04100
C 	C 	0.56538 0.70003 0.50621 -0.08600
C 	C 	0.50754 0.67615 0.49778 0.07600
C 	C 	0.49360 0.62078 0.52115 -0.03600
C 	C 	0.53769 0.58640 0.54763 -0.09700
C 	C 	0.59497 0.61048 0.55719 0.07900
C 	C 	0.64275 0.57469 0.58677 -0.19600
H 	H 	0.65267 0.68552 0.54265 0.04100
H 	H 	0.44930 0.60246 0.51506 0.03600
C 	C 	0.46130 0.70809 0.46201 -0.19400
H 	H 	0.67942 0.60379 0.60301 0.06500
H 	H 	0.66157 0.54127 0.55530 0.07000
H 	H 	0.62416 0.55138 0.62482 0.07800
H 	H 	0.48073 0.72246 0.42018 0.08400
H 	H 	0.44378 0.74749 0.48690 0.07800
H 	H 	0.42304 0.67860 0.45098 0.06500
C 	C 	0.37864 0.74176 0.84752 -0.03900
C 	C 	0.34133 0.78661 0.82675 -0.08500
C 	C 	0.36340 0.84497 0.82064 0.07300
C 	C 	0.42155 0.85841 0.83923 -0.03500
C 	C 	0.45791 0.81422 0.86338 -0.09600
C 	C 	0.43590 0.75512 0.86781 0.08200
C 	C 	0.47191 0.70657 0.89592 -0.19800
H 	H 	0.36167 0.69674 0.85109 0.04500
H 	H 	0.43836 0.90344 0.83541 0.04700
C 	C 	0.32498 0.89314 0.79532 -0.19200
H 	H 	0.44443 0.66661 0.90445 0.06600
H 	H 	0.48931 0.72259 0.93858 0.08800
H 	H 	0.50914 0.69223 0.86689 0.08000
H 	H 	0.29095 0.90785 0.82778 0.07000
H 	H 	0.30248 0.87607 0.75521 0.06800
H 	H 	0.35175 0.93254 0.78326 0.06300
C 	C 	0.92350 0.75356 0.90450 -0.03900
C 	C 	0.95750 0.79798 0.87826 -0.08300
C 	C 	0.93377 0.85656 0.87403 0.07700
C 	C 	0.87730 0.86944 0.89705 -0.03500
C 	C 	0.84205 0.82424 0.91971 -0.08700
C 	C 	0.86588 0.76631 0.92542 0.07600
C 	C 	0.82977 0.71781 0.95262 -0.19300
H 	H 	0.94167 0.70887 0.90809 0.04900
H 	H 	0.85903 0.91414 0.89375 0.04500
C 	C 	0.96684 0.90482 0.84283 -0.18300
H 	H 	0.85805 0.67895 0.96393 0.06500
H 	H 	0.79480 0.70228 0.92166 0.07000
H 	H 	0.80848 0.73489 0.99345 0.06800
H 	H 	0.98303 0.88753 0.80006 0.08700
H 	H 	0.00482 0.92096 0.86982 0.07300
H 	H 	0.93764 0.94377 0.83408 0.07000
C 	C 	0.16601 0.61670 0.51969 -0.03600
C 	C 	0.20291 0.65940 0.49463 -0.09500
C 	C 	0.24172 0.69324 0.53078 0.07700
C 	C 	0.23405 0.69282 0.59153 -0.04300
C 	C 	0.19035 0.65678 0.61616 -0.08600
C 	C 	0.16030 0.61434 0.58056 0.07600
C 	C 	0.11786 0.57049 0.60679 -0.19400
H 	H 	0.13830 0.58852 0.49188 0.04400
H 	H 	0.25923 0.72346 0.61922 0.04000
C 	C 	0.28694 0.73446 0.50491 -0.19700
H 	H 	0.10830 0.53284 0.57584 0.06400
H 	H 	0.07529 0.59337 0.61821 0.07600
H 	H 	0.13737 0.55124 0.64667 0.07900
H 	H 	0.26497 0.77704 0.49349 0.07200
H 	H 	0.30757 0.71379 0.46529 0.08300
H 	H 	0.32348 0.74434 0.53633 0.06500
C 	C 	0.20655 0.75130 0.02961 -0.04000
C 	C 	0.19087 0.70172 0.99453 -0.08500
C 	C 	0.17788 0.64687 0.02075 0.06900
C 	C 	0.17497 0.64428 0.08190 -0.03700
C 	C 	0.18490 0.69562 0.11676 -0.08800
C 	C 	0.20455 0.74842 0.09062 0.07500
C 	C 	0.21907 0.80317 0.12730 -0.19500
H 	H 	0.21802 0.79295 0.00938 0.03900
H 	H 	0.16147 0.60327 0.10215 0.04400
C 	C 	0.16323 0.59223 0.98391 -0.18800
H 	H 	0.24844 0.83390 0.10333 0.06400
H 	H 	0.24282 0.79079 0.16776 0.06800
H 	H 	0.17719 0.82720 0.13895 0.07300
H 	H 	0.19923 0.58324 0.95165 0.07200
H 	H 	0.12049 0.59926 0.96060 0.08000
H 	H 	0.15877 0.55195 0.01081 0.06200
C 	C 	0.39682 0.87803 0.38642 -0.03800
C 	C 	0.44487 0.85293 0.35492 -0.09500
C 	C 	0.43288 0.81588 0.30545 0.08000
C 	C 	0.37474 0.79461 0.29610 -0.04600
C 	C 	0.32755 0.81402 0.33239 -0.08500
C 	C 	0.33793 0.86173 0.37292 0.07100
C 	C 	0.28729 0.89697 0.40019 -0.18900
H 	H 	0.40511 0.90989 0.42178 0.04200
H 	H 	0.36657 0.76234 0.26109 0.04800
C 	C 	0.48135 0.79868 0.26263 -0.19500
H 	H 	0.30126 0.94353 0.41062 0.06200
H 	H 	0.27323 0.87607 0.44127 0.06600
H 	H 	0.24886 0.89973 0.36994 0.06900
H 	H 	0.50450 0.75778 0.27719 0.07300
H 	H 	0.51407 0.83536 0.25832 0.07900
H 	H 	0.46240 0.78948 0.21860 0.06600
C 	C 	0.93364 0.83322 0.37892 -0.04100
C 	C 	0.94856 0.77288 0.38509 -0.08300
C 	C 	0.90397 0.73189 0.40104 0.07400
C 	C 	0.84488 0.75210 0.40924 -0.04000
C 	C 	0.83038 0.81279 0.40410 -0.08900
C 	C 	0.87532 0.85373 0.38864 0.07700
C 	C 	0.86135 0.91898 0.38051 -0.19700
H 	H 	0.96771 0.86447 0.36615 0.05500
H 	H 	0.81036 0.72070 0.42049 0.04100
C 	C 	0.91874 0.66688 0.40903 -0.19300
H 	H 	0.90169 0.94445 0.36838 0.06700
H 	H 	0.84388 0.93968 0.42149 0.07000
H 	H 	0.82869 0.92404 0.34484 0.07800
H 	H 	0.95925 0.66220 0.43638 0.08200
H 	H 	0.92633 0.64465 0.36588 0.07800
H 	H 	0.88195 0.64335 0.43113 0.06400
C 	C 	0.26832 0.26151 0.60779 -0.04200
C 	C 	0.28145 0.32246 0.60317 -0.09000
C 	C 	0.23560 0.36547 0.61143 0.07600
C 	C 	0.17808 0.34682 0.62468 -0.04200
C 	C 	0.16530 0.28624 0.63250 -0.09600
C 	C 	0.21008 0.24279 0.62075 0.07700
C 	C 	0.19640 0.17694 0.62101 -0.19300
H 	H 	0.30337 0.22859 0.60096 0.04000
H 	H 	0.14332 0.38010 0.63104 0.04700
C 	C 	0.24748 0.43154 0.60700 -0.19700
H 	H 	0.23115 0.15050 0.59731 0.06100
H 	H 	0.15327 0.16754 0.59896 0.08000
H 	H 	0.19473 0.16152 0.66658 0.07500
H 	H 	0.25714 0.44272 0.56113 0.07200
H 	H 	0.28507 0.44498 0.63557 0.07300
H 	H 	0.20840 0.45880 0.62127 0.06400
C 	C 	0.77128 0.34018 0.61449 -0.04100
C 	C 	0.78428 0.31007 0.66590 -0.08600
C 	C 	0.74040 0.30750 0.71002 0.07400
C 	C 	0.68194 0.32623 0.69798 -0.03500
C 	C 	0.66760 0.35045 0.64389 -0.09500
C 	C 	0.71323 0.35872 0.60215 0.07700
C 	C 	0.70053 0.38603 0.54387 -0.18900
H 	H 	0.80609 0.34734 0.58281 0.04600
H 	H 	0.64741 0.32145 0.73059 0.04500
C 	C 	0.75527 0.28572 0.76978 -0.19100
H 	H 	0.74029 0.38451 0.51499 0.06000
H 	H 	0.68765 0.43359 0.55014 0.06500
H 	H 	0.66474 0.36117 0.52067 0.04900
H 	H 	0.80056 0.30043 0.78310 0.07100
H 	H 	0.75256 0.23631 0.76962 0.07300
H 	H 	0.72355 0.30401 0.80292 0.06300
C 	C 	0.11123 0.02459 0.70801 -0.04800
C 	C 	0.05049 0.03642 0.69893 -0.09200
C 	C 	0.01027 0.98822 0.69186 0.06800
C 	C 	0.03131 0.92954 0.69656 -0.03900
C 	C 	0.09020 0.91832 0.71415 -0.08900
C 	C 	0.13183 0.96564 0.71355 0.08200
C 	C 	0.19785 0.95396 0.71714 -0.19300
H 	H 	0.14251 0.06130 0.71100 0.04000
H 	H 	0.00049 0.89279 0.69078 0.04400
C 	C 	0.94463 0.99883 0.68161 -0.16700
H 	H 	0.22310 0.98825 0.69335 0.06300
H 	H 	0.20959 0.90987 0.69700 0.07300
H 	H 	0.21201 0.95569 0.76346 0.07300
H 	H 	0.93764 0.01703 0.63758 0.06200
H 	H 	0.92634 0.03026 0.71528 0.05600
H 	H 	0.91867 0.95687 0.68412 0.06300
C 	C 	0.98681 0.46390 0.78307 -0.01100
C 	C 	0.03160 0.42015 0.77632 -0.10200
C 	C 	0.09226 0.43674 0.78403 0.08100
C 	C 	0.10663 0.49693 0.79413 -0.04300
C 	C 	0.06209 0.54086 0.79641 -0.08800
C 	C 	0.00160 0.52409 0.79363 0.05000
C 	C 	0.95273 0.57022 0.80022 -0.17700
H 	H 	0.94039 0.45127 0.77885 0.04100
H 	H 	0.15298 0.50996 0.79811 0.03500
C 	C 	0.14189 0.39099 0.78210 -0.19700
H 	H 	0.90906 0.54915 0.80914 0.06100
H 	H 	0.94880 0.59567 0.75951 0.07200
H 	H 	0.96251 0.60155 0.83723 0.07400
H 	H 	0.14022 0.36428 0.74095 0.08200
H 	H 	0.13823 0.36131 0.81993 0.07700
H 	H 	0.18651 0.41226 0.78408 0.06300
C 	C 	0.96438 0.11321 0.90695 -0.03100
C 	C 	0.92218 0.14726 0.87718 -0.08800
C 	C 	0.87295 0.17148 0.90800 0.07200
C 	C 	0.87346 0.17227 0.96916 -0.03800
C 	C 	0.92179 0.14778 0.99910 -0.09500
C 	C 	0.96411 0.11271 0.96807 0.08900
C 	C 	0.01213 0.07931 0.99980 -0.21200
H 	H 	0.00031 0.09138 0.88290 0.03600
H 	H 	0.83898 0.19637 0.99323 0.04500
C 	C 	0.82319 0.20195 0.87639 -0.19500
H 	H 	0.03011 0.04193 0.97225 0.06600
H 	H 	0.99406 0.05991 0.04020 0.08700
H 	H 	0.04912 0.11012 0.01140 0.07900
H 	H 	0.81331 0.17776 0.83473 0.06900
H 	H 	0.83639 0.24849 0.86753 0.06800
H 	H 	0.78168 0.20283 0.90282 0.06300
C 	C 	0.97687 0.14684 0.47231 -0.02800
C 	C 	0.94026 0.19046 0.49878 -0.09700
C 	C 	0.90445 0.22739 0.46394 0.07800
C 	C 	0.91092 0.22462 0.40313 -0.03800
C 	C 	0.95076 0.18394 0.37688 -0.09400
C 	C 	0.98152 0.14248 0.41136 0.08900
C 	C 	0.02140 0.09546 0.38350 -0.22000
H 	H 	0.00317 0.11756 0.49920 0.03400
H 	H 	0.88636 0.25545 0.37634 0.03800
C 	C 	0.86185 0.27197 0.49144 -0.19700
H 	H 	0.03724 0.06282 0.41577 0.06800
H 	H 	0.06093 0.11688 0.36398 0.08200
H 	H 	0.99677 0.07018 0.34901 0.09200
H 	H 	0.88736 0.30868 0.51294 0.07000
H 	H 	0.83346 0.24991 0.52409 0.08300
H 	H 	0.83170 0.29165 0.45858 0.06300
C 	C 	0.18357 0.33439 0.11090 -0.03900
C 	C 	0.17109 0.27326 0.10508 -0.09600
C 	C 	0.21751 0.23272 0.09007 0.07500
C 	C 	0.27619 0.25395 0.08439 -0.04300
C 	C 	0.28861 0.31512 0.09124 -0.08800
C 	C 	0.24181 0.35561 0.10533 0.07500
C 	C 	0.25353 0.42137 0.11540 -0.19600
H 	H 	0.14779 0.36562 0.12105 0.05000
H 	H 	0.31211 0.22292 0.07407 0.04100
C 	C 	0.20509 0.16715 0.08017 -0.19200
H 	H 	0.21339 0.44526 0.13235 0.06300
H 	H 	0.26606 0.44222 0.07383 0.06900
H 	H 	0.28937 0.42801 0.14812 0.07400
H 	H 	0.16445 0.16071 0.05315 0.07300
H 	H 	0.19899 0.14546 0.12271 0.07400
H 	H 	0.24249 0.14439 0.05679 0.06100
C 	C 	0.72174 0.36959 0.12151 -0.03900
C 	C 	0.67347 0.33954 0.14634 -0.09600
C 	C 	0.68499 0.29678 0.18945 0.07900
C 	C 	0.74354 0.27606 0.19753 -0.04600
C 	C 	0.79143 0.30164 0.16756 -0.08400
C 	C 	0.78065 0.35316 0.13440 0.07200
C 	C 	0.83101 0.39113 0.11290 -0.19100
H 	H 	0.71364 0.40542 0.09160 0.04300
H 	H 	0.75156 0.23958 0.22670 0.04900
C 	C 	0.63584 0.27358 0.22745 -0.19400
H 	H 	0.81636 0.43828 0.10884 0.06300
H 	H 	0.84596 0.37427 0.06939 0.07000
H 	H 	0.86902 0.39118 0.14376 0.07100
H 	H 	0.61374 0.23513 0.20514 0.07100
H 	H 	0.60252 0.30912 0.23774 0.07800
H 	H 	0.65389 0.25832 0.26967 0.06500
C 	C 	0.01986 0.93064 0.24752 -0.05800
C 	C 	0.07978 0.91396 0.25413 -0.08100
C 	C 	0.12531 0.95269 0.23564 0.07400
C 	C 	0.10994 0.00954 0.21581 -0.04100
C 	C 	0.04998 0.02702 0.21147 -0.10600
C 	C 	0.00448 0.98614 0.22526 0.08800
C 	C 	0.93944 0.00147 0.21715 -0.20600
H 	H 	0.98491 0.90053 0.26062 0.05900
H 	H 	0.14477 0.04072 0.20481 0.03800
C 	C 	0.19022 0.93534 0.23950 -0.19000
H 	H 	0.90993 0.96448 0.23038 0.07100
H 	H 	0.93017 0.00990 0.17056 0.06900
H 	H 	0.92730 0.04121 0.24432 0.06100
H 	H 	0.19701 0.88711 0.22954 0.06800
H 	H 	0.20704 0.94610 0.28395 0.07200
H 	H 	0.21727 0.96015 0.20767 0.06300
C 	C 	0.10454 0.43079 0.23928 -0.04500
C 	C 	0.04442 0.41381 0.23956 -0.07900
C 	C 	0.00089 0.45398 0.26211 0.06200
C 	C 	0.01756 0.51260 0.27789 -0.04400
C 	C 	0.07748 0.53011 0.27540 -0.09300
C 	C 	0.12160 0.48816 0.25773 0.08100
C 	C 	0.18679 0.50460 0.25688 -0.19900
H 	H 	0.13824 0.39930 0.22406 0.04900
H 	H 	0.98387 0.54463 0.29213 0.04800
C 	C 	0.93687 0.43524 0.26896 -0.17900
H 	H 	0.21529 0.46623 0.24277 0.06400
H 	H 	0.20179 0.51857 0.30120 0.06700
H 	H 	0.19426 0.54106 0.22598 0.06900
H 	H 	0.93393 0.38869 0.28420 0.07100
H 	H 	0.91346 0.43892 0.22666 0.07100
H 	H 	0.91347 0.46423 0.30169 0.06200
