data_crystal

_cell_length_a 20.50971
_cell_length_b 21.61472
_cell_length_c 39.24674
_cell_angle_alpha 60.60356
_cell_angle_beta  119.14439
_cell_angle_gamma 133.31150

_symmetry_space_group_name_	'P 1'
_symmetry_space_group_name_H-M	'P 1'

loop_
_symmetry_equiv_pos_as_xyz
  x,y,z

loop_
_atom_site_label
_atom_site_type_symbol
_atom_site_fract_x
_atom_site_fract_y
_atom_site_fract_z
_atom_site_charge
Co	Co	0.02494 0.07790 0.08484 1.17400
Co	Co	0.06727 0.99400 0.05155 1.18100
Co	Co	0.07319 0.83868 0.06017 1.17400
O 	O 	0.07965 0.10243 0.04403 -0.44200
O 	O 	0.00107 0.92635 0.20279 -0.39100
O 	O 	0.05776 0.74207 0.11338 -0.40900
O 	O 	0.07705 0.13525 0.16638 -0.38900
O 	O 	0.03438 0.88902 0.07477 -0.76400
Co	Co	0.02165 0.11243 0.57724 1.17600
Co	Co	0.06992 0.05657 0.53181 1.18500
Co	Co	0.08171 0.92185 0.52341 1.17200
O 	O 	0.07362 0.15381 0.53140 -0.44700
O 	O 	0.02176 0.95090 0.69428 -0.39400
O 	O 	0.07422 0.81969 0.57202 -0.41200
O 	O 	0.08340 0.15599 0.66603 -0.38000
O 	O 	0.04289 0.95433 0.54887 -0.76500
C 	C 	0.01734 0.93687 0.75963 -0.16300
C 	C 	0.10101 0.00207 0.77914 0.13000
C 	C 	0.10419 0.01567 0.81205 0.06500
C 	C 	0.02955 0.89830 0.89971 0.06600
C 	C 	0.00433 0.88013 0.93258 0.10900
C 	C 	0.06779 0.97941 0.32092 0.05000
C 	C 	0.06626 0.96563 0.28851 0.10300
C 	C 	0.12507 0.35902 0.56733 0.08500
N 	N 	0.10270 0.51969 0.55640 -0.10600
C 	C 	0.03935 0.94975 0.98037 0.32900
O 	O 	0.01279 0.97654 0.99217 -0.35300
C 	C 	0.03593 0.03768 0.45208 0.30800
O 	O 	0.09812 0.02277 0.47208 -0.39600
C 	C 	0.02928 0.96373 0.86529 0.01800
C 	C 	0.00935 0.94401 0.93781 -0.10500
N 	N 	0.10025 0.35312 0.53484 -0.10600
N 	N 	0.03142 0.57330 0.24438 -0.09200
C 	C 	0.02350 0.96168 0.82610 -0.00000
C 	C 	0.02671 0.06521 0.34941 0.05700
Br	Br	0.09980 0.21117 0.37581 -0.15900
Br	Br	0.06749 0.15120 0.30100 -0.16500
C 	C 	0.03268 0.08981 0.37902 0.09700
C 	C 	0.07833 0.61051 0.22300 0.09400
O 	O 	0.09097 0.81164 0.15370 -0.38100
C 	C 	0.12104 0.83318 0.60773 0.30600
O 	O 	0.11098 0.87064 0.62158 -0.37400
C 	C 	0.13334 0.22177 0.63946 0.29100
O 	O 	0.13594 0.20723 0.61075 -0.37000
Br	Br	0.06379 0.83247 0.90177 -0.15500
O 	O 	0.09701 0.93065 0.00591 -0.39400
C 	C 	0.13239 0.48169 0.58218 0.09900
C 	C 	0.01717 0.01558 0.90427 0.11900
C 	C 	0.02051 0.02163 0.86713 0.06900
C 	C 	0.09913 0.76203 0.14779 0.30500
C 	C 	0.13162 0.19907 0.14178 0.29100
N 	N 	0.12688 0.74863 0.71702 -0.09100
Br	Br	0.02493 0.10532 0.90879 -0.16700
C 	C 	0.15664 0.36696 0.60791 0.01800
H 	H 	0.15370 0.52437 0.66007 0.06700
O 	O 	0.13589 0.18240 0.11430 -0.36400
N 	N 	0.11768 0.45913 0.23776 -0.09300
N 	N 	0.12788 0.51240 0.04967 -0.10100
C 	C 	0.15292 0.75111 0.69571 0.09900
N 	N 	0.00321 0.35319 0.96651 -0.10600
N 	N 	0.15301 0.35185 0.03876 -0.09600
H 	H 	0.13849 0.50600 0.15318 0.06200
C 	C 	0.16916 0.43378 0.61443 -0.03500
C 	C 	0.13758 0.65707 0.19659 0.01900
C 	C 	0.14018 0.52926 0.21839 0.10200
C 	C 	0.14776 0.46896 0.07790 0.09800
C 	C 	0.15935 0.35104 0.06990 0.09100
O 	O 	0.00759 0.04959 0.47095 -0.35800
Br	Br	0.01286 0.10808 0.81939 -0.16200
C 	C 	0.16848 0.35010 0.10905 0.01600
C 	C 	0.16832 0.61704 0.19417 -0.03100
C 	C 	0.16920 0.74451 0.17487 -0.07100
Co	Co	0.00033 0.88267 0.58988 1.17800
C 	C 	0.17239 0.41444 0.11321 -0.03500
C 	C 	0.18224 0.31294 0.64055 -0.07200
Br	Br	0.96247 0.76733 0.96982 -0.17700
Co	Co	0.98519 0.82785 0.11416 1.19700
C 	C 	0.98131 0.91460 0.26332 -0.09400
Br	Br	0.89970 0.79445 0.40173 -0.16600
C 	C 	0.98441 0.94858 0.32547 0.03600
O 	O 	0.91638 0.96550 0.19614 -0.39400
C 	C 	0.97216 0.94267 0.21909 0.36100
O 	O 	0.92926 0.97170 0.69623 -0.40400
C 	C 	0.99226 0.95787 0.71492 0.39000
C 	C 	0.93684 0.91237 0.38532 0.07200
Br	Br	0.80935 0.86584 0.42034 -0.16000
N 	N 	0.28547 0.94703 0.54391 -0.10600
C 	C 	0.24134 0.01499 0.06702 0.29700
O 	O 	0.20805 0.93136 0.08359 -0.37700
O 	O 	0.20755 0.04760 0.06917 -0.37600
C 	C 	0.25053 0.09484 0.54002 0.30100
O 	O 	0.21541 0.01143 0.54912 -0.37700
O 	O 	0.21162 0.11955 0.54465 -0.37800
Br	Br	0.21161 0.06573 0.76330 -0.16500
Br	Br	0.21830 0.10670 0.83792 -0.14500
Br	Br	0.18175 0.03559 0.35971 -0.15700
Br	Br	0.17872 0.01232 0.27986 -0.16500
C 	C 	0.18892 0.81115 0.62989 -0.07100
C 	C 	0.18545 0.75418 0.66906 0.02300
C 	C 	0.22867 0.81715 0.60630 0.02400
C 	C 	0.25967 0.89004 0.57176 0.07800
C 	C 	0.18280 0.29064 0.14350 -0.07100
N 	N 	0.95194 0.63210 0.63022 -0.09400
N 	N 	0.25940 0.28166 0.45791 -0.08600
N 	N 	0.28598 0.23541 0.01720 -0.09200
C 	C 	0.73108 0.27501 0.03056 0.04600
C 	C 	0.78378 0.34403 0.04892 -0.06500
C 	C 	0.73849 0.35835 0.05905 0.04300
C 	C 	0.64422 0.29462 0.05767 -0.06600
C 	C 	0.59005 0.23321 0.03481 0.04400
C 	C 	0.63450 0.22923 0.01838 -0.06700
H 	H 	0.85836 0.38645 0.05474 0.06900
H 	H 	0.61159 0.29913 0.07049 0.06600
H 	H 	0.59495 0.18974 0.99716 0.07400
C 	C 	0.72821 0.33611 0.49554 0.04400
C 	C 	0.63309 0.28037 0.49368 -0.06500
C 	C 	0.59513 0.30566 0.50140 0.04400
C 	C 	0.64952 0.38979 0.50640 -0.06700
C 	C 	0.74042 0.45025 0.50239 0.04500
C 	C 	0.78011 0.42377 0.49662 -0.06300
H 	H 	0.59175 0.21398 0.49119 0.07100
H 	H 	0.62089 0.40845 0.51348 0.06500
H 	H 	0.85251 0.46847 0.49641 0.07400
C 	C 	0.26978 0.62752 0.16834 0.04200
C 	C 	0.36570 0.67814 0.17391 -0.06300
C 	C 	0.40295 0.65421 0.16494 0.04500
C 	C 	0.34921 0.56984 0.16061 -0.06600
C 	C 	0.25407 0.51602 0.15601 0.04300
C 	C 	0.21277 0.54553 0.15866 -0.06200
H 	H 	0.41042 0.73937 0.18235 0.06900
H 	H 	0.38074 0.54786 0.15820 0.06800
C 	C 	0.28101 0.65243 0.66798 0.04300
C 	C 	0.22712 0.56812 0.66192 -0.06400
C 	C 	0.26765 0.54415 0.65482 0.04300
C 	C 	0.35950 0.60508 0.65222 -0.06700
C 	C 	0.41507 0.68510 0.66182 0.04400
C 	C 	0.37710 0.70583 0.67262 -0.06400
H 	H 	0.38873 0.58887 0.64393 0.06500
H 	H 	0.41990 0.76855 0.67945 0.07100
Co	Co	0.93448 0.90746 0.14406 1.19300
C 	C 	0.88064 0.69333 0.06522 0.29300
Co	Co	0.93866 0.06100 0.14291 1.18100
O 	O 	0.96668 0.01160 0.12157 -0.74400
O 	O 	0.92823 0.80194 0.15390 -0.43600
O 	O 	0.97866 0.94342 0.09042 -0.56000
C 	C 	0.76126 0.89004 0.13133 0.30200
O 	O 	0.80288 0.97560 0.11748 -0.38000
O 	O 	0.79585 0.85167 0.13522 -0.35900
C 	C 	0.91945 0.15178 0.05570 0.30100
O 	O 	0.95791 0.16426 0.09186 -0.38900
O 	O 	0.93152 0.11034 0.04578 -0.35300
O 	O 	0.93361 0.75445 0.03946 -0.34800
O 	O 	0.87909 0.71397 0.09180 -0.35100
Co	Co	0.94896 0.93712 0.63471 1.19300
C 	C 	0.89313 0.76583 0.53095 0.29600
Co	Co	0.94343 0.07245 0.64575 1.18300
O 	O 	0.97186 0.03773 0.61633 -0.74700
O 	O 	0.95003 0.84199 0.63620 -0.42900
O 	O 	0.98380 0.98723 0.57575 -0.55900
C 	C 	0.76839 0.89949 0.62946 0.29900
O 	O 	0.80794 0.98453 0.62020 -0.37100
O 	O 	0.80995 0.86886 0.63210 -0.36000
C 	C 	0.90983 0.17022 0.56220 0.30600
O 	O 	0.95491 0.17870 0.59879 -0.39300
O 	O 	0.92205 0.13878 0.54586 -0.35400
O 	O 	0.94225 0.83316 0.50408 -0.34900
O 	O 	0.89413 0.77705 0.56200 -0.34800
C 	C 	0.94271 0.89118 0.80863 0.07900
C 	C 	0.94446 0.87338 0.77915 0.15400
Br	Br	0.82962 0.81993 0.82466 -0.13700
Br	Br	0.84647 0.76346 0.76462 -0.16100
C 	C 	0.90070 0.86442 0.27613 0.12500
C 	C 	0.90001 0.89093 0.30226 0.06500
C 	C 	0.98524 0.97603 0.35457 0.03100
C 	C 	0.98742 0.02456 0.41061 -0.06400
C 	C 	0.92447 0.93807 0.40709 0.10700
Br	Br	0.79048 0.76415 0.25534 -0.17600
Br	Br	0.78578 0.85960 0.30126 -0.14100
C 	C 	0.21705 0.45360 0.65242 0.01200
C 	C 	0.24278 0.39961 0.68476 -0.03400
C 	C 	0.23384 0.33578 0.67777 0.02300
C 	C 	0.28256 0.41273 0.72494 0.11100
C 	C 	0.28729 0.30214 0.70674 0.10500
N 	N 	0.33128 0.27656 0.72987 -0.07600
N 	N 	0.31431 0.42328 0.75700 -0.08800
C 	C 	0.51209 0.74890 0.65797 0.01500
C 	C 	0.57116 0.72230 0.67967 -0.03100
C 	C 	0.64417 0.75988 0.66452 0.02500
C 	C 	0.67140 0.83705 0.63317 -0.06800
C 	C 	0.61215 0.86344 0.61103 0.02400
C 	C 	0.53650 0.82351 0.62506 -0.03200
C 	C 	0.55512 0.65463 0.71702 0.11400
C 	C 	0.62491 0.92670 0.57231 0.09900
C 	C 	0.48680 0.86172 0.60681 0.10500
C 	C 	0.68015 0.71161 0.67637 0.10900
N 	N 	0.44807 0.89322 0.59221 -0.10300
N 	N 	0.70827 0.67259 0.68557 -0.08300
N 	N 	0.63502 0.97713 0.54140 -0.09700
N 	N 	0.54228 0.60059 0.74683 -0.08700
C 	C 	0.21380 0.69971 0.68203 -0.03200
C 	C 	0.23673 0.69644 0.65446 0.01300
C 	C 	0.23457 0.74977 0.61529 -0.03400
C 	C 	0.23774 0.73482 0.58407 0.10300
C 	C 	0.21700 0.64622 0.72290 0.10700
N 	N 	0.21958 0.60343 0.75557 -0.09300
N 	N 	0.24035 0.72295 0.55918 -0.10200
C 	C 	0.20094 0.42603 0.15180 0.01000
C 	C 	0.21364 0.36538 0.18592 -0.03400
C 	C 	0.21617 0.30601 0.18159 0.02000
C 	C 	0.23164 0.36909 0.22570 0.11200
C 	C 	0.25591 0.26282 0.21603 0.10500
N 	N 	0.28828 0.22893 0.24361 -0.07700
N 	N 	0.24615 0.37231 0.25743 -0.08300
C 	C 	0.66881 0.83469 0.13803 -0.06900
C 	C 	0.65751 0.83820 0.16961 0.03200
C 	C 	0.57328 0.77309 0.18109 -0.02900
C 	C 	0.49401 0.72096 0.15451 0.01600
C 	C 	0.50276 0.73043 0.11829 -0.03200
C 	C 	0.59085 0.77846 0.11288 0.02900
C 	C 	0.72774 0.91333 0.18697 0.09900
C 	C 	0.42216 0.69635 0.08575 0.10600
C 	C 	0.60109 0.76883 0.08209 0.10100
C 	C 	0.56975 0.75560 0.22105 0.11800
N 	N 	0.60925 0.76105 0.05754 -0.09300
N 	N 	0.56607 0.74106 0.25288 -0.08400
N 	N 	0.35791 0.66925 0.05975 -0.09700
N 	N 	0.78331 0.97363 0.20066 -0.09600
C 	C 	0.23025 0.66538 0.16949 0.01200
C 	C 	0.26852 0.75620 0.15210 -0.03300
C 	C 	0.24957 0.79610 0.16200 0.01500
C 	C 	0.32221 0.80677 0.12259 0.09500
C 	C 	0.31461 0.88837 0.16111 0.10100
N 	N 	0.36696 0.96226 0.16051 -0.09400
N 	N 	0.36573 0.84683 0.09930 -0.10100
C 	C 	0.84394 0.19458 0.54075 -0.06900
C 	C 	0.83949 0.24387 0.50006 0.02600
C 	C 	0.80134 0.29080 0.48467 -0.03000
C 	C 	0.77645 0.29519 0.51091 0.01600
C 	C 	0.78735 0.25097 0.55165 -0.03200
C 	C 	0.80597 0.19055 0.56446 0.02700
C 	C 	0.87362 0.24666 0.47421 0.10800
C 	C 	0.78283 0.27020 0.58072 0.10900
C 	C 	0.78824 0.12596 0.60256 0.08100
C 	C 	0.78981 0.33563 0.44245 0.11100
N 	N 	0.77366 0.07528 0.63315 -0.11000
N 	N 	0.78058 0.37148 0.40871 -0.09000
N 	N 	0.77926 0.28555 0.60392 -0.09800
N 	N 	0.90089 0.24898 0.45351 -0.08200
C 	C 	0.84216 0.67584 0.52819 -0.06600
C 	C 	0.77289 0.64860 0.49364 0.03000
C 	C 	0.75831 0.58978 0.48005 -0.03000
C 	C 	0.79403 0.54034 0.50618 0.01600
C 	C 	0.85859 0.56303 0.54268 -0.03100
C 	C 	0.87723 0.62623 0.55496 0.02100
C 	C 	0.70403 0.66408 0.47817 0.10800
C 	C 	0.90618 0.52205 0.56744 0.10700
C 	C 	0.91918 0.63000 0.59672 0.10100
C 	C 	0.70224 0.57625 0.44010 0.12200
N 	N 	0.65753 0.56551 0.40818 -0.08400
N 	N 	0.94468 0.48979 0.58722 -0.09900
N 	N 	0.64821 0.67550 0.46604 -0.08400
C 	C 	0.34514 0.16043 0.53394 -0.07200
C 	C 	0.41184 0.14390 0.55933 0.02800
C 	C 	0.48421 0.17806 0.54484 -0.03300
C 	C 	0.50055 0.24218 0.50800 0.01400
C 	C 	0.43565 0.26157 0.48319 -0.03200
C 	C 	0.36116 0.22459 0.49725 0.02200
C 	C 	0.40581 0.09172 0.60040 0.09900
C 	C 	0.44576 0.31953 0.44326 0.11100
C 	C 	0.30439 0.25611 0.47524 0.09600
C 	C 	0.53688 0.14224 0.56624 0.10700
N 	N 	0.57785 0.11248 0.58339 -0.10100
N 	N 	0.45382 0.36577 0.41137 -0.08800
N 	N 	0.40088 0.04996 0.63315 -0.09400
C 	C 	0.77421 0.24099 0.02982 0.01000
C 	C 	0.84330 0.29436 0.00835 -0.02600
C 	C 	0.88305 0.25976 0.00881 0.01000
C 	C 	0.85101 0.17173 0.02928 -0.06200
C 	C 	0.76699 0.11629 0.03989 0.01100
C 	C 	0.73996 0.15175 0.04768 -0.02900
C 	C 	0.87236 0.38307 0.98564 0.11100
C 	C 	0.70276 0.02695 0.03647 0.10600
C 	C 	0.69198 0.10182 0.07931 0.10100
C 	C 	0.95013 0.31163 0.98551 0.13300
N 	N 	0.65419 0.06200 0.10483 -0.10200
N 	N 	0.65068 0.95554 0.03327 -0.09500
N 	N 	0.89555 0.45395 0.96751 -0.08400
C 	C 	0.78203 0.44733 0.06107 0.01300
C 	C 	0.81698 0.46506 0.09878 -0.03100
C 	C 	0.83540 0.53953 0.10096 0.02000
C 	C 	0.82511 0.59971 0.06530 -0.06300
C 	C 	0.78177 0.57709 0.02825 0.02500
C 	C 	0.76766 0.50563 0.02568 -0.02900
C 	C 	0.83488 0.40740 0.13521 0.10400
C 	C 	0.74797 0.62497 0.99324 0.11600
C 	C 	0.73844 0.49201 0.98662 0.12000
C 	C 	0.85713 0.55008 0.13961 0.10000
N 	N 	0.71516 0.48103 0.95547 -0.08700
N 	N 	0.87366 0.55836 0.17041 -0.09000
N 	N 	0.72095 0.66318 0.96528 -0.08000
N 	N 	0.84927 0.36139 0.16430 -0.09400
C 	C 	0.48673 0.17788 0.02625 0.01700
C 	C 	0.44368 0.21569 0.01799 -0.03500
C 	C 	0.36101 0.16359 0.02992 0.02600
C 	C 	0.31573 0.07167 0.04498 -0.07200
C 	C 	0.34336 0.03345 0.03933 0.02900
C 	C 	0.43263 0.08537 0.03385 -0.03100
C 	C 	0.48278 0.30682 0.99616 0.10900
C 	C 	0.27565 0.94661 0.03189 0.08900
C 	C 	0.46383 0.04396 0.03223 0.10900
C 	C 	0.31918 0.20335 0.02291 0.09500
N 	N 	0.48711 0.00977 0.03059 -0.10000
N 	N 	0.22156 0.87748 0.02576 -0.10800
N 	N 	0.51383 0.37954 0.97874 -0.09600
