data_crystal

_cell_length_a 22.99171
_cell_length_b 22.98998
_cell_length_c 16.90990
_cell_angle_alpha 90.00199
_cell_angle_beta  90.00056
_cell_angle_gamma 119.99254

_symmetry_space_group_name_	'P 1'
_symmetry_space_group_name_H-M	'P 1'

loop_
_symmetry_equiv_pos_as_xyz
  x,y,z

loop_
_atom_site_label
_atom_site_type_symbol
_atom_site_fract_x
_atom_site_fract_y
_atom_site_fract_z
_atom_site_charge
C 	C 	0.52678 0.36820 0.75322 0.29000
C 	C 	0.77793 0.60790 0.70050 0.30900
C 	C 	0.57858 0.51385 0.84529 0.32400
C 	C 	0.72525 0.47508 0.57199 0.28900
C 	C 	0.60817 0.64043 0.62392 0.30300
C 	C 	0.52369 0.48462 0.51318 0.28300
Ni	Ni	0.66342 0.48123 0.73613 1.11500
Ni	Ni	0.66923 0.56407 0.57767 1.12100
Ni	Ni	0.53639 0.49820 0.68434 1.12200
O 	O 	0.58572 0.38491 0.72323 -0.36800
O 	O 	0.49764 0.40575 0.74190 -0.35400
O 	O 	0.66325 0.63811 0.62947 -0.37400
O 	O 	0.72790 0.58181 0.74868 -0.36400
O 	O 	0.76532 0.60576 0.62415 -0.35500
O 	O 	0.50024 0.45352 0.58117 -0.37600
O 	O 	0.61413 0.48353 0.84030 -0.35300
O 	O 	0.57643 0.54769 0.78509 -0.37600
O 	O 	0.58679 0.53651 0.50482 -0.36200
O 	O 	0.72606 0.47040 0.65113 -0.35000
O 	O 	0.68590 0.49263 0.53489 -0.37500
O 	O 	0.54934 0.58586 0.63645 -0.36600
O 	O 	0.61749 0.49958 0.65681 -0.71000
H 	H 	0.59910 0.45829 0.62487 0.17400
C 	C 	0.42975 0.57405 0.25322 0.29000
C 	C 	0.17860 0.33435 0.20049 0.30600
C 	C 	0.37794 0.42840 0.34528 0.30800
C 	C 	0.23128 0.46717 0.07198 0.32200
C 	C 	0.34835 0.30181 0.12393 0.30400
C 	C 	0.43283 0.45762 0.01318 0.22600
Ni	Ni	0.29311 0.46102 0.23612 1.11400
Ni	Ni	0.28730 0.37817 0.07766 1.11900
Ni	Ni	0.42013 0.44404 0.18434 1.12100
O 	O 	0.37082 0.55734 0.22322 -0.37300
O 	O 	0.45889 0.53650 0.24191 -0.35900
O 	O 	0.29327 0.30413 0.12947 -0.38700
O 	O 	0.22863 0.36044 0.24866 -0.37400
O 	O 	0.19121 0.33649 0.12414 -0.36900
O 	O 	0.45629 0.48872 0.08118 -0.37300
O 	O 	0.34241 0.45872 0.34029 -0.35900
O 	O 	0.38009 0.39456 0.28508 -0.38100
O 	O 	0.36974 0.40572 0.00482 -0.36600
O 	O 	0.23047 0.47184 0.15111 -0.36400
O 	O 	0.27063 0.44961 0.03488 -0.39500
O 	O 	0.40718 0.35638 0.13645 -0.37500
O 	O 	0.33904 0.44266 0.15680 -0.71000
H 	H 	0.35743 0.48396 0.12486 0.17200
C 	C 	0.58115 0.12255 0.08656 0.29000
C 	C 	0.34142 0.13398 0.03384 0.24500
C 	C 	0.43550 0.02869 0.17861 0.23100
C 	C 	0.47425 0.21415 0.90535 0.28900
C 	C 	0.30895 0.93171 0.95723 0.30100
C 	C 	0.46478 0.00309 0.84650 0.24600
Ni	Ni	0.46809 0.14613 0.06948 1.09700
Ni	Ni	0.38527 0.06913 0.91100 1.11600
Ni	Ni	0.45117 0.00217 0.01766 1.08500
O 	O 	0.56442 0.16477 0.05658 -0.39100
O 	O 	0.54361 0.05586 0.07525 -0.38000
O 	O 	0.31125 0.98911 0.96278 -0.34800
O 	O 	0.36751 0.11002 0.08200 -0.38100
O 	O 	0.34357 0.12352 0.95749 -0.32200
O 	O 	0.49586 0.01071 0.91450 -0.35800
O 	O 	0.46581 0.09454 0.17363 -0.35200
O 	O 	0.40167 0.99271 0.11840 -0.34800
O 	O 	0.41286 0.01426 0.83815 -0.36700
O 	O 	0.47889 0.21960 0.98449 -0.32500
O 	O 	0.45669 0.15725 0.86823 -0.37400
O 	O 	0.36353 0.92746 0.96975 -0.33700
O 	O 	0.44977 0.08187 0.99014 -0.68800
H 	H 	0.49106 0.10479 0.95820 0.18200
C 	C 	0.37538 0.81971 0.58657 0.29000
C 	C 	0.61510 0.80826 0.53384 0.30800
C 	C 	0.52104 0.91357 0.67861 0.31900
C 	C 	0.48227 0.72810 0.40535 0.28900
C 	C 	0.64758 0.01054 0.45722 0.26600
C 	C 	0.49175 0.93917 0.34651 0.29700
Ni	Ni	0.48844 0.79612 0.56948 1.11500
Ni	Ni	0.57124 0.87312 0.41100 1.12300
Ni	Ni	0.50535 0.94009 0.51766 1.12800
O 	O 	0.39211 0.77748 0.55659 -0.37000
O 	O 	0.41292 0.88640 0.57525 -0.35300
O 	O 	0.64528 0.95314 0.46277 -0.34700
O 	O 	0.58902 0.83223 0.58200 -0.36400
O 	O 	0.61295 0.81872 0.45749 -0.35600
O 	O 	0.46066 0.93154 0.41450 -0.37400
O 	O 	0.49073 0.84772 0.67364 -0.35400
O 	O 	0.55486 0.94955 0.61840 -0.36800
O 	O 	0.54365 0.92797 0.33815 -0.35700
O 	O 	0.47763 0.72264 0.48449 -0.35300
O 	O 	0.49982 0.78500 0.36823 -0.37600
O 	O 	0.59299 0.01479 0.46975 -0.37900
O 	O 	0.50676 0.86038 0.49014 -0.70900
H 	H 	0.46547 0.83747 0.45821 0.17300
C 	C 	0.12975 0.51965 0.91980 0.26000
C 	C 	0.14114 0.77081 0.86718 0.30700
C 	C 	0.03586 0.57142 0.01188 0.23800
C 	C 	0.22131 0.71818 0.73866 0.29000
C 	C 	0.93888 0.60102 0.79051 0.30200
C 	C 	0.01026 0.51660 0.67975 0.24700
Ni	Ni	0.15330 0.65629 0.90277 1.12100
Ni	Ni	0.07630 0.66213 0.74429 1.11600
Ni	Ni	0.00936 0.52926 0.85091 1.11300
O 	O 	0.17196 0.57860 0.88983 -0.35300
O 	O 	0.06306 0.49050 0.90848 -0.34200
O 	O 	0.99627 0.65613 0.79607 -0.35400
O 	O 	0.11719 0.72076 0.91533 -0.36500
O 	O 	0.13066 0.75822 0.79082 -0.36100
O 	O 	0.01793 0.49315 0.74773 -0.37600
O 	O 	0.10170 0.60695 0.00691 -0.37500
O 	O 	0.99988 0.56927 0.95167 -0.30100
O 	O 	0.02147 0.57971 0.67141 -0.36800
O 	O 	0.22677 0.71897 0.81779 -0.34800
O 	O 	0.16443 0.67885 0.70152 -0.37700
O 	O 	0.93465 0.54220 0.80301 -0.35000
O 	O 	0.08905 0.61037 0.82342 -0.71500
H 	H 	0.11197 0.59201 0.79147 0.17500
C 	C 	0.82680 0.42261 0.41981 0.29000
C 	C 	0.81538 0.17144 0.36716 0.30800
C 	C 	0.92068 0.37083 0.51187 0.31800
C 	C 	0.73522 0.22408 0.23864 0.28800
C 	C 	0.01765 0.34122 0.29050 0.26700
C 	C 	0.94628 0.42565 0.17976 0.27100
Ni	Ni	0.80323 0.28597 0.40276 1.11500
Ni	Ni	0.88023 0.28012 0.24429 1.12100
Ni	Ni	0.94718 0.41300 0.35092 1.12700
O 	O 	0.78459 0.36367 0.38983 -0.37100
O 	O 	0.89348 0.45176 0.40849 -0.35300
O 	O 	0.96026 0.28612 0.29606 -0.35500
O 	O 	0.83934 0.22149 0.41531 -0.36900
O 	O 	0.82586 0.18403 0.29080 -0.36300
O 	O 	0.93861 0.44911 0.24774 -0.36800
O 	O 	0.85484 0.33530 0.50690 -0.35800
O 	O 	0.95666 0.37297 0.45166 -0.37100
O 	O 	0.93506 0.36254 0.17140 -0.35800
O 	O 	0.72976 0.22330 0.31778 -0.35500
O 	O 	0.79211 0.26341 0.20152 -0.38000
O 	O 	0.02188 0.40005 0.30302 -0.38000
O 	O 	0.86748 0.33188 0.32341 -0.70900
H 	H 	0.84457 0.35025 0.29147 0.17300
C 	C 	0.97817 0.46860 0.61724 0.02600
C 	C 	0.95096 0.42391 0.56940 -0.05900
C 	C 	0.97837 0.47365 0.11724 0.01800
C 	C 	0.00558 0.51834 0.06940 -0.09500
C 	C 	0.27840 0.76229 0.69141 -0.02600
C 	C 	0.32331 0.79354 0.64511 -0.02900
C 	C 	0.75597 0.11171 0.39299 -0.05400
C 	C 	0.70586 0.06564 0.42138 -0.02900
C 	C 	0.47580 0.97122 0.28398 -0.04100
C 	C 	0.45831 0.99842 0.23614 0.01000
C 	C 	0.48073 0.97104 0.78397 0.02900
C 	C 	0.49823 0.94384 0.73613 -0.05600
C 	C 	0.63322 0.14873 0.14509 -0.04300
C 	C 	0.67813 0.17997 0.19139 -0.03300
C 	C 	0.25066 0.87661 0.92140 -0.02000
C 	C 	0.20055 0.83054 0.89301 -0.04000
C 	C 	0.11885 0.33401 0.22630 -0.05900
C 	C 	0.07276 0.33803 0.25468 -0.03400
C 	C 	0.15592 0.49378 0.97838 0.07100
C 	C 	0.18717 0.48013 0.02470 -0.13000
C 	C 	0.46929 0.67101 0.35809 -0.02900
C 	C 	0.45564 0.62611 0.31178 -0.03300
C 	C 	0.34110 0.19340 0.05968 -0.04500
C 	C 	0.34514 0.24351 0.08808 -0.05400
C 	C 	0.80063 0.44848 0.47839 -0.03000
C 	C 	0.76938 0.46212 0.52472 -0.02700
C 	C 	0.83768 0.60823 0.72632 -0.03900
C 	C 	0.88377 0.60421 0.75469 -0.02100
C 	C 	0.52551 0.49104 0.90281 -0.06700
C 	C 	0.48083 0.47355 0.95066 0.05200
C 	C 	0.43101 0.45121 0.40281 -0.04900
C 	C 	0.47569 0.46869 0.45066 -0.02100
C 	C 	0.48723 0.27124 0.85809 -0.02000
C 	C 	0.50089 0.31614 0.81178 -0.02900
C 	C 	0.61541 0.74884 0.55967 -0.04000
C 	C 	0.61137 0.69873 0.58807 -0.02900
