data_crystal

_cell_length_a 15.34114
_cell_length_b 15.30389
_cell_length_c 45.77250
_cell_angle_alpha 90.77695
_cell_angle_beta  90.95860
_cell_angle_gamma 110.99616

_symmetry_space_group_name_	'P 1'
_symmetry_space_group_name_H-M	'P 1'

loop_
_symmetry_equiv_pos_as_xyz
  x,y,z

loop_
_atom_site_label
_atom_site_type_symbol
_atom_site_fract_x
_atom_site_fract_y
_atom_site_fract_z
_atom_site_charge
O 	O 	0.00962 0.96284 0.77290 -0.68200
H 	H 	0.02750 0.94431 0.79207 0.16700
C 	C 	0.00575 0.17246 0.77253 0.29500
O 	O 	0.00593 0.91651 0.27469 -0.40500
O 	O 	0.01550 0.09665 0.22525 -0.36800
C 	C 	0.04263 0.78885 0.32697 -0.01900
C 	C 	0.04024 0.48042 0.43686 0.14400
C 	C 	0.03617 0.44709 0.48896 0.04400
C 	C 	0.01174 0.52976 0.06282 0.12800
C 	C 	0.01296 0.55300 0.03345 0.07300
C 	C 	0.07397 0.63933 0.71125 -0.02800
O 	O 	0.01045 0.75630 0.71881 -0.37300
C 	C 	0.05419 0.56803 0.69698 -0.07200
C 	C 	0.08014 0.72759 0.72373 0.26500
O 	O 	0.09179 0.17349 0.77586 -0.34900
H 	H 	0.10736 0.96970 0.71057 0.17500
O 	O 	0.06824 0.79356 0.16734 -0.33700
C 	C 	0.04757 0.52782 0.19008 0.29300
O 	O 	0.03338 0.60328 0.18100 -0.34600
Ni	Ni	0.08140 0.04845 0.29185 1.07200
Br	Br	0.12299 0.57405 0.01096 -0.10200
Br	Br	0.07680 0.44961 0.07476 -0.28800
Ni	Ni	0.12321 0.06631 0.75577 1.10300
O 	O 	0.11428 0.95430 0.73121 -0.70100
O 	O 	0.15291 0.77782 0.74028 -0.38600
O 	O 	0.20716 0.55936 0.34096 -0.35300
O 	O 	0.12049 0.69945 0.35094 -0.33400
C 	C 	0.19569 0.54537 0.41259 0.33600
C 	C 	0.12310 0.78116 0.34134 0.25900
O 	O 	0.17968 0.61685 0.40125 -0.36400
O 	O 	0.17971 0.61320 0.13083 -0.69000
Ni	Ni	0.11061 0.69187 0.14900 1.10300
Ni	Ni	0.10024 0.48038 0.13291 1.10200
O 	O 	0.10767 0.49882 0.17703 -0.40900
C 	C 	0.12639 0.88067 0.17025 0.27300
O 	O 	0.13681 0.08573 0.25163 -0.38900
O 	O 	0.11494 0.25223 0.26694 -0.36000
C 	C 	0.08360 0.06498 0.22815 0.30900
C 	C 	0.15346 0.25774 0.29326 0.28000
O 	O 	0.15344 0.18161 0.30689 -0.39400
C 	C 	0.09459 0.00018 0.20685 -0.04900
C 	C 	0.10634 0.94485 0.18979 -0.01700
C 	C 	0.19431 0.34794 0.30773 -0.03600
C 	C 	0.13614 0.49337 0.43673 -0.11500
C 	C 	0.12895 0.45013 0.48800 0.06100
C 	C 	0.17679 0.46734 0.46149 0.13200
Br	Br	0.19255 0.43691 0.52343 -0.10200
Br	Br	0.07313 0.64122 0.51994 -0.10500
C 	C 	0.22618 0.42298 0.32037 -0.02500
O 	O 	0.19974 0.05747 0.79192 -0.36600
Ni	Ni	0.22466 0.92150 0.73408 1.07700
O 	O 	0.20432 0.84799 0.33696 -0.41300
O 	O 	0.20659 0.42587 0.13328 -0.35200
O 	O 	0.20365 0.90957 0.15556 -0.37500
H 	H 	0.19437 0.63204 0.11045 0.19200
Br	Br	0.18019 0.90220 0.45938 -0.19000
O 	O 	0.24406 0.15923 0.73889 -0.35100
O 	O 	0.25495 0.94469 0.77770 -0.38700
C 	C 	0.26791 0.02499 0.79093 0.28300
Ni	Ni	0.24294 0.68465 0.36447 1.10100
O 	O 	0.25195 0.51044 0.39966 -0.37100
H 	H 	0.23131 0.79411 0.40633 0.18700
C 	C 	0.26271 0.51097 0.33630 0.28700
O 	O 	0.23075 0.73371 0.17393 -0.70300
H 	H 	0.21964 0.72630 0.19516 0.16400
Br	Br	0.29069 0.44224 0.45838 -0.16000
Br	Br	0.27579 0.20230 0.05047 -0.11600
Br	Br	0.23405 0.24637 0.11974 -0.15200
Br	Br	0.24940 0.41034 0.00567 -0.09200
Br	Br	0.19943 0.97259 0.52953 -0.10700
O 	O 	0.30547 0.05144 0.72016 -0.39600
O 	O 	0.27654 0.80267 0.39048 -0.70400
C 	C 	0.31684 0.13540 0.73164 0.27100
Ni	Ni	0.29393 0.91950 0.37105 1.07300
Ni	Ni	0.29505 0.64933 0.15850 1.10300
Ni	Ni	0.31174 0.86170 0.16421 1.07400
O 	O 	0.30955 0.83359 0.12055 -0.39200
C 	C 	0.29449 0.47547 0.12840 0.32400
C 	C 	0.29151 0.00078 0.47374 0.12300
Br	Br	0.29008 0.24570 0.53845 -0.10400
Br	Br	0.30520 0.89404 0.99021 -0.11500
Br	Br	0.30729 0.62015 0.06368 -0.18300
C 	C 	0.33252 0.32648 0.06734 0.07000
C 	C 	0.30752 0.34693 0.09548 0.12700
C 	C 	0.29803 0.03303 0.50288 0.06700
Br	Br	0.30650 0.38834 0.93670 -0.14000
O 	O 	0.34989 0.54013 0.34648 -0.39400
O 	O 	0.34073 0.54313 0.14682 -0.33700
Br	Br	0.32876 0.28250 0.61063 -0.13500
Br	Br	0.33640 0.71707 0.48399 -0.17600
C 	C 	0.34741 0.43898 0.10725 -0.09900
C 	C 	0.34444 0.06154 0.81144 -0.03000
C 	C 	0.35850 0.78665 0.10978 0.33200
Br	Br	0.36388 0.97391 0.92291 -0.13700
C 	C 	0.36303 0.38900 0.99756 0.06600
O 	O 	0.37655 0.70860 0.37579 -0.70300
Ni	Ni	0.38572 0.59008 0.38790 1.08100
O 	O 	0.37582 0.00539 0.40365 -0.38600
C 	C 	0.37936 0.97914 0.43111 0.32600
O 	O 	0.37896 0.72589 0.12591 -0.34200
C 	C 	0.36790 0.03790 0.45527 -0.12000
C 	C 	0.40430 0.20843 0.72550 -0.01500
C 	C 	0.38551 0.74780 0.05807 0.13300
Br	Br	0.39695 0.68572 0.99845 -0.11500
C 	C 	0.36388 0.18737 0.55944 0.06700
C 	C 	0.37919 0.10606 0.51300 0.02200
C 	C 	0.39912 0.39720 0.05153 0.02100
C 	C 	0.38793 0.38090 0.96839 0.13300
C 	C 	0.01727 0.49446 0.67557 0.32300
Ni	Ni	0.39899 0.80964 0.40746 1.10900
O 	O 	0.41995 0.62810 0.43182 -0.37600
O 	O 	0.41173 0.91233 0.43733 -0.34200
H 	H 	0.41662 0.73295 0.35882 0.16600
O 	O 	0.40429 0.92234 0.34615 -0.40200
Br	Br	0.40094 0.70761 0.55371 -0.10800
C 	C 	0.42162 0.77607 0.03030 0.07100
C 	C 	0.40416 0.81382 0.08135 -0.11100
C 	C 	0.41077 0.09240 0.82795 -0.02900
O 	O 	0.40714 0.69689 0.18652 -0.35000
C 	C 	0.38693 0.20959 0.58918 0.13400
C 	C 	0.39719 0.12456 0.54480 0.02100
C 	C 	0.41994 0.37908 0.02084 0.02400
C 	C 	0.42816 0.50135 0.09420 0.12500
C 	C 	0.43050 0.91971 0.97687 0.06600
O 	O 	0.43706 0.84581 0.17098 -0.38000
C 	C 	0.44814 0.48436 0.06530 0.07300
C 	C 	0.44338 0.11869 0.46422 0.13200
C 	C 	0.45882 0.71518 0.49352 0.13600
C 	C 	0.44872 0.15329 0.49310 0.06500
C 	C 	0.45002 0.78773 0.19012 0.27600
C 	C 	0.45638 0.95874 0.94934 0.13000
C 	C 	0.46338 0.90719 0.07699 0.13500
C 	C 	0.45062 0.17627 0.60350 -0.11900
C 	C 	0.45022 0.08116 0.56024 0.06600
C 	C 	0.48843 0.70498 0.44066 0.32800
C 	C 	0.48758 0.71687 0.52282 0.07200
C 	C 	0.48125 0.25707 0.71781 -0.04400
C 	C 	0.47302 0.87095 0.02537 0.02200
C 	C 	0.49500 0.93643 0.04881 0.06700
C 	C 	0.47884 0.10847 0.58937 0.12800
C 	C 	0.47052 0.36391 0.96247 -0.10900
Br	Br	0.48543 0.98589 0.54113 -0.11200
C 	C 	0.48742 0.93664 0.35755 0.28900
O 	O 	0.48485 0.27094 0.92143 -0.34000
O 	O 	0.48450 0.14623 0.87422 -0.34300
C 	C 	0.49733 0.90301 0.99519 0.02000
O 	O 	0.49762 0.91112 0.38424 -0.34600
Br	Br	0.50516 0.99359 0.10981 -0.18400
C 	C 	0.49257 0.12831 0.84645 0.28500
C 	C 	0.49916 0.35630 0.01490 0.07200
C 	C 	0.49716 0.35455 0.93194 0.33000
Br	Br	0.51044 0.49925 0.52868 -0.11100
O 	O 	0.50694 0.78158 0.42593 -0.36100
C 	C 	0.50105 0.22515 0.63020 0.32200
C 	C 	0.52029 0.71366 0.47113 -0.11400
O 	O 	0.51035 0.42433 0.91395 -0.36800
O 	O 	0.50541 0.17706 0.65358 -0.38100
Br	Br	0.51828 0.60162 0.11670 -0.12900
C 	C 	0.52538 0.35040 0.98580 0.12800
C 	C 	0.52385 0.82334 0.21144 -0.03300
Br	Br	0.53622 0.58341 0.04389 -0.10800
O 	O 	0.53533 0.31724 0.63122 -0.33600
Br	Br	0.54198 0.17796 0.43750 -0.14500
Br	Br	0.55390 0.26137 0.50604 -0.10900
C 	C 	0.55058 0.98940 0.94132 -0.11000
H 	H 	0.55043 0.32482 0.85216 0.16600
Br	Br	0.56514 0.06676 0.04201 -0.11500
Br	Br	0.56099 0.05697 0.60917 -0.24800
Br	Br	0.57062 0.33152 0.04670 -0.11100
C 	C 	0.57003 0.98478 0.34124 -0.02300
C 	C 	0.57804 0.71888 0.52956 0.02200
C 	C 	0.58225 0.58567 0.55888 0.06400
O 	O 	0.57269 0.13174 0.83616 -0.40600
C 	C 	0.57405 0.29992 0.70669 0.30000
O 	O 	0.58616 0.04290 0.89224 -0.38500
O 	O 	0.58333 0.14745 0.92831 -0.34800
C 	C 	0.58429 0.06500 0.92029 0.33200
C 	C 	0.58792 0.91946 0.98499 0.06800
Ni	Ni	0.58751 0.24595 0.89878 1.10700
C 	C 	0.58520 0.86233 0.22895 -0.03700
C 	C 	0.59586 0.68124 0.55743 0.02100
O 	O 	0.59357 0.37352 0.69021 -0.34700
C 	C 	0.00428 0.51913 0.53507 0.08900
O 	O 	0.60117 0.34394 0.86721 -0.69400
C 	C 	0.61414 0.72805 0.47797 0.13100
C 	C 	0.61524 0.96486 0.95831 0.12400
C 	C 	0.62204 0.55345 0.58205 0.13400
Ni	Ni	0.61963 0.46824 0.88451 1.07800
Br	Br	0.00560 0.62057 0.58892 -0.18900
Ni	Ni	0.62871 0.17293 0.66986 1.08600
O 	O 	0.62757 0.25066 0.70612 -0.40400
C 	C 	0.63625 0.74168 0.58139 0.06400
Br	Br	0.63569 0.43347 0.57834 -0.20000
O 	O 	0.63832 0.50815 0.64636 -0.34500
Br	Br	0.63731 0.32518 0.97789 -0.17900
C 	C 	0.64368 0.73357 0.50731 0.06700
C 	C 	0.64314 0.02110 0.32895 -0.03300
O 	O 	0.64791 0.99834 0.25876 -0.39500
C 	C 	0.65569 0.91953 0.24891 0.26600
Br	Br	0.65744 0.87332 0.57906 -0.11100
O 	O 	0.99600 0.64947 0.12187 -0.35700
C 	C 	0.96990 0.51082 0.56360 0.11700
C 	C 	0.98879 0.81125 0.31221 -0.07400
C 	C 	0.99074 0.45896 0.46311 0.04600
C 	C 	0.98089 0.46257 0.20845 -0.03600
O 	O 	0.97522 0.49755 0.12901 -0.38300
C 	C 	0.96492 0.56246 0.11232 0.33700
C 	C 	0.93605 0.39354 0.22151 -0.02400
Br	Br	0.97471 0.48216 0.40066 -0.16600
C 	C 	0.86590 0.55685 0.06804 0.13700
C 	C 	0.94400 0.54302 0.08092 -0.13900
Ni	Ni	0.72525 0.35009 0.85059 1.10000
O 	O 	0.71028 0.44977 0.91463 -0.40200
O 	O 	0.74072 0.45597 0.82221 -0.36900
O 	O 	0.70454 0.24696 0.88029 -0.71200
O 	O 	0.84140 0.32972 0.83420 -0.34100
O 	O 	0.76202 0.17345 0.82655 -0.40500
Ni	Ni	0.67757 0.12333 0.86228 1.07500
H 	H 	0.75553 0.26067 0.89499 0.19100
C 	C 	0.79455 0.45435 0.90761 0.32300
C 	C 	0.73359 0.53454 0.83163 0.27900
C 	C 	0.84115 0.24565 0.82737 0.27000
O 	O 	0.81510 0.44427 0.88020 -0.34800
O 	O 	0.72688 0.54848 0.85977 -0.37900
Ni	Ni	0.84233 0.34056 0.66568 1.10000
O 	O 	0.71024 0.27987 0.64819 -0.69800
Ni	Ni	0.66189 0.38609 0.65091 1.10700
O 	O 	0.86712 0.21667 0.66512 -0.33800
O 	O 	0.73690 0.14793 0.69123 -0.39400
O 	O 	0.89546 0.36389 0.62351 -0.33700
O 	O 	0.99199 0.51847 0.65055 -0.39100
O 	O 	0.79231 0.44666 0.67053 -0.68700
O 	O 	0.97237 0.40907 0.68415 -0.36900
O 	O 	0.78161 0.62006 0.64143 -0.36600
Ni	Ni	0.87557 0.55215 0.64789 1.08500
H 	H 	0.71184 0.26152 0.62745 0.19000
H 	H 	0.79004 0.46374 0.69136 0.17100
O 	O 	0.83150 0.47267 0.61108 -0.39700
C 	C 	0.80907 0.14224 0.67764 0.27900
C 	C 	0.87218 0.41408 0.60341 0.32700
C 	C 	0.69593 0.57636 0.63160 0.33600
Ni	Ni	0.99322 0.85749 0.74456 1.09700
O 	O 	0.94603 0.10437 0.75692 -0.41500
Ni	Ni	0.88790 0.97604 0.77649 1.07400
O 	O 	0.82150 0.91381 0.73854 -0.38600
O 	O 	0.86591 0.76653 0.75734 -0.36600
C 	C 	0.86516 0.93108 0.71397 0.31400
C 	C 	0.83452 0.76997 0.78387 0.28400
O 	O 	0.93422 0.90191 0.70989 -0.37300
O 	O 	0.83595 0.84974 0.79605 -0.39500
Ni	Ni	0.84120 0.97308 0.27661 1.10500
O 	O 	0.96520 0.07457 0.29013 -0.69700
Ni	Ni	0.97894 0.16713 0.25856 1.10000
O 	O 	0.86823 0.86596 0.29731 -0.35100
O 	O 	0.78122 0.99969 0.31389 -0.35800
O 	O 	0.84751 0.07717 0.24983 -0.70400
O 	O 	0.71363 0.88437 0.26183 -0.35300
O 	O 	0.96046 0.25357 0.22819 -0.36700
O 	O 	0.83679 0.27119 0.25185 -0.38600
Ni	Ni	0.74976 0.12847 0.25602 1.07100
H 	H 	0.95748 0.10371 0.30887 0.16500
H 	H 	0.84185 0.05333 0.22941 0.16800
O 	O 	0.75891 0.13325 0.30045 -0.39200
C 	C 	0.94813 0.85620 0.29176 0.27800
C 	C 	0.73235 0.05460 0.31493 0.29600
C 	C 	0.90588 0.30080 0.23291 0.27000
C 	C 	0.98912 0.43862 0.51753 -0.00200
C 	C 	0.91297 0.42211 0.57390 -0.09800
C 	C 	0.89302 0.34209 0.55558 0.12300
C 	C 	0.93364 0.34993 0.52782 0.07900
Br	Br	0.91442 0.23936 0.50404 -0.12000
Br	Br	0.86210 0.44975 0.46397 -0.11600
Br	Br	0.80606 0.22297 0.56774 -0.14900
C 	C 	0.66395 0.70611 0.60659 0.13500
C 	C 	0.66036 0.61269 0.60647 -0.12200
Br	Br	0.77215 0.75339 0.51719 -0.11900
Br	Br	0.70225 0.78357 0.64152 -0.16800
Br	Br	0.70077 0.73581 0.44717 -0.15900
C 	C 	0.83988 0.06795 0.68564 -0.00800
C 	C 	0.85582 0.00396 0.69646 -0.04600
C 	C 	0.86976 0.49045 0.92953 -0.11200
C 	C 	0.89037 0.42660 0.94736 0.12400
C 	C 	0.90286 0.44468 0.97742 0.06800
C 	C 	0.91663 0.53536 0.98839 0.02200
C 	C 	0.92169 0.60719 0.96880 0.06700
C 	C 	0.89556 0.58402 0.93930 0.13100
C 	C 	0.93162 0.55575 0.01999 0.01600
C 	C 	0.85783 0.55900 0.03734 0.06900
Br	Br	0.96470 0.73584 0.98230 -0.11700
Br	Br	0.91711 0.32422 0.93019 -0.19100
Br	Br	0.76878 0.56815 0.09226 -0.12800
Br	Br	0.89032 0.67825 0.91263 -0.16600
Br	Br	0.89295 0.34378 0.00350 -0.10900
Br	Br	0.74690 0.56617 0.01906 -0.11600
Br	Br	0.74203 0.99795 0.94569 -0.17900
Br	Br	0.67429 0.88109 0.00779 -0.11100
C 	C 	0.96693 0.21604 0.79419 -0.07200
C 	C 	0.91639 0.23739 0.81051 -0.02600
C 	C 	0.76580 0.61484 0.81354 -0.02700
C 	C 	0.79568 0.68500 0.79956 -0.03600
