data_crystal

_cell_length_a 13.22382
_cell_length_b 16.46455
_cell_length_c 40.56091
_cell_angle_alpha 90.39125
_cell_angle_beta  90.39293
_cell_angle_gamma 119.34068

_symmetry_space_group_name_	'P 1'
_symmetry_space_group_name_H-M	'P 1'

loop_
_symmetry_equiv_pos_as_xyz
  x,y,z

loop_
_atom_site_label
_atom_site_type_symbol
_atom_site_fract_x
_atom_site_fract_y
_atom_site_fract_z
_atom_site_charge
O 	O 	0.45593 0.19923 0.92721 -0.38100
O 	O 	0.43085 0.20574 0.64388 -0.36700
C 	C 	0.23303 0.03014 0.76410 0.30500
C 	C 	0.21965 0.05759 0.83816 0.28900
Ni	Ni	0.03264 0.03888 0.79500 1.12400
Ni	Ni	0.08756 0.86955 0.80442 1.12300
O 	O 	0.17871 0.07813 0.76891 -0.37000
O 	O 	0.20298 0.97123 0.83546 -0.37300
O 	O 	0.13254 0.07565 0.83586 -0.37600
O 	O 	0.17677 0.93861 0.76462 -0.38300
C 	C 	0.38787 0.68088 0.48717 0.28900
C 	C 	0.49673 0.78426 0.35649 0.28500
C 	C 	0.54622 0.86881 0.45116 0.30100
C 	C 	0.29864 0.51086 0.37694 0.29300
C 	C 	0.22108 0.82982 0.37931 0.31700
C 	C 	0.07707 0.59634 0.42715 0.27300
Ni	Ni	0.46049 0.67895 0.41847 1.11200
Ni	Ni	0.24333 0.66341 0.37136 1.12100
Ni	Ni	0.29721 0.77474 0.43952 1.11800
O 	O 	0.39684 0.62850 0.46421 -0.38000
O 	O 	0.32082 0.71988 0.48289 -0.37600
O 	O 	0.16623 0.74163 0.37192 -0.38400
O 	O 	0.38975 0.76913 0.35014 -0.35300
O 	O 	0.12366 0.68549 0.43634 -0.36500
O 	O 	0.46352 0.87317 0.43557 -0.38600
O 	O 	0.10381 0.57130 0.39822 -0.35800
O 	O 	0.37303 0.53986 0.40186 -0.35700
O 	O 	0.29453 0.57161 0.35720 -0.37500
O 	O 	0.28372 0.85959 0.40625 -0.37200
O 	O 	0.32745 0.69368 0.41253 -0.69800
H 	H 	0.27907 0.63548 0.42407 0.14200
C 	C 	0.16242 0.74194 0.20489 0.27500
C 	C 	0.31271 0.61096 0.09397 0.29700
C 	C 	0.24248 0.53401 0.19525 0.29800
C 	C 	0.18777 0.78509 0.10226 0.29000
C 	C 	0.55091 0.72651 0.15146 0.29300
Ni	Ni	0.16852 0.63105 0.14641 1.11300
Ni	Ni	0.41743 0.80234 0.11916 1.12100
Ni	Ni	0.38745 0.74207 0.19679 1.12000
O 	O 	0.10272 0.69366 0.17846 -0.35200
O 	O 	0.23882 0.72270 0.21948 -0.35600
O 	O 	0.53824 0.76340 0.12422 -0.38400
O 	O 	0.23630 0.56527 0.11700 -0.36800
O 	O 	0.33702 0.69606 0.08647 -0.37800
O 	O 	0.44481 0.87917 0.19570 -0.38700
O 	O 	0.15620 0.54654 0.18577 -0.36500
O 	O 	0.34516 0.60584 0.20143 -0.37400
O 	O 	0.14511 0.69415 0.10489 -0.36400
O 	O 	0.30090 0.84368 0.10601 -0.37200
O 	O 	0.54104 0.75896 0.18049 -0.37600
O 	O 	0.31835 0.73291 0.15476 -0.70800
H 	H 	0.29549 0.78053 0.15857 0.14100
C 	C 	0.12357 0.96733 0.23201 0.27600
C 	C 	0.17232 0.25904 0.33051 0.29600
C 	C 	0.13552 0.98375 0.31982 0.29300
C 	C 	0.15751 0.28880 0.24023 0.28300
Ni	Ni	0.20350 0.14779 0.27486 1.11400
O 	O 	0.21217 0.04800 0.24291 -0.34300
O 	O 	0.01598 0.95250 0.23222 -0.36400
O 	O 	0.24073 0.25923 0.30697 -0.35100
O 	O 	0.06040 0.19842 0.32967 -0.35600
O 	O 	0.20227 0.07399 0.31639 -0.35400
O 	O 	0.05998 0.93316 0.29681 -0.36700
O 	O 	0.21356 0.24013 0.23783 -0.35300
O 	O 	0.09640 0.28275 0.26670 -0.36000
C 	C 	0.19371 0.37085 0.22053 -0.02300
C 	C 	0.21746 0.44411 0.20765 -0.03700
C 	C 	0.14335 0.89050 0.22286 -0.02600
C 	C 	0.15379 0.82322 0.21531 -0.03200
C 	C 	0.25235 0.41671 0.36464 -0.03200
C 	C 	0.21370 0.34185 0.35079 -0.02900
C 	C 	0.19584 0.89127 0.36070 -0.03900
C 	C 	0.16990 0.93668 0.34303 -0.02300
C 	C 	0.47722 0.93308 0.56361 -0.05000
C 	C 	0.41095 0.97728 0.56932 0.00500
C 	C 	0.37583 0.07343 0.60620 -0.06800
C 	C 	0.38008 0.98992 0.60170 -0.02800
H 	H 	0.47301 0.88037 0.58028 0.05100
H 	H 	0.38830 0.95228 0.62244 0.05400
C 	C 	0.00707 0.45651 0.50145 0.04700
C 	C 	0.00185 0.52529 0.45072 -0.04200
C 	C 	0.04147 0.47162 0.46779 -0.03400
H 	H 	0.11024 0.46032 0.45844 0.05300
C 	C 	0.42663 0.54453 0.55422 0.00100
C 	C 	0.53461 0.60366 0.54009 0.02100
S 	S 	0.33836 0.58439 0.54343 0.03400
C 	C 	0.42692 0.67336 0.52012 -0.07200
C 	C 	0.53629 0.67871 0.52288 -0.02300
C 	C 	0.34854 0.07929 0.75115 -0.03400
C 	C 	0.44196 0.13368 0.74008 -0.02300
C 	C 	0.31778 0.43305 0.03222 0.00200
C 	C 	0.23950 0.35514 0.01379 -0.05600
C 	C 	0.21271 0.36781 0.98143 0.02100
C 	C 	0.37340 0.52250 0.01813 0.01400
S 	S 	0.29547 0.44672 0.07163 0.03200
C 	C 	0.35672 0.56244 0.07295 -0.07500
C 	C 	0.39950 0.59484 0.04144 -0.01500
C 	C 	0.10014 0.31141 0.96790 -0.02200
H 	H 	0.18697 0.28928 0.02596 0.05100
H 	H 	0.42688 0.66569 0.03401 0.04600
H 	H 	0.03715 0.24708 0.97925 0.05500
C 	C 	0.19210 0.06374 0.01843 0.00700
C 	C 	0.17332 0.03888 0.05158 -0.04400
C 	C 	0.11478 0.94417 0.05941 0.01300
C 	C 	0.06658 0.87595 0.03416 0.00100
C 	C 	0.09017 0.90070 0.00107 -0.04900
C 	C 	0.15779 0.99501 0.99341 0.00200
S 	S 	0.31182 0.15637 0.00587 0.03200
C 	C 	0.32351 0.11579 0.96927 -0.08500
C 	C 	0.23217 0.02475 0.96576 0.01000
S 	S 	0.06018 0.77978 0.04864 0.03500
C 	C 	0.11585 0.81817 0.08613 -0.07000
C 	C 	0.14098 0.91101 0.08867 -0.01500
H 	H 	0.21742 0.09112 0.07072 0.05000
H 	H 	0.19593 0.95744 0.10813 0.04800
C 	C 	0.53716 0.56956 0.14456 -0.02200
H 	H 	0.44954 0.39348 0.11580 0.05200
H 	H 	0.44461 0.53157 0.14889 0.04900
C 	C 	0.43139 0.19332 0.85181 -0.03400
C 	C 	0.33423 0.13205 0.84562 -0.02900
C 	C 	0.54573 0.26528 0.86100 0.30200
C 	C 	0.43499 0.14856 0.95328 0.31800
C 	C 	0.44386 0.13527 0.63387 0.30300
O 	O 	0.01185 0.79123 0.84445 -0.36000
O 	O 	0.95340 0.00333 0.75045 -0.36300
O 	O 	0.99521 0.75048 0.77640 -0.36300
O 	O 	0.97713 0.91236 0.80592 -0.71800
H 	H 	0.97373 0.91711 0.83009 0.15400
O 	O 	0.51356 0.72059 0.37081 -0.36300
C 	C 	0.06294 0.46032 0.55834 0.01700
C 	C 	0.06367 0.43213 0.52563 -0.06300
S 	S 	0.07729 0.40798 0.59132 0.02800
H 	H 	0.11152 0.39673 0.51901 0.05600
C 	C 	0.38840 0.44948 0.55790 -0.05300
H 	H 	0.30378 0.40366 0.56803 0.05000
H 	H 	0.39249 0.29620 0.58202 0.04500
C 	C 	0.27221 0.45640 0.96688 -0.00500
C 	C 	0.35428 0.53362 0.98484 -0.04800
H 	H 	0.07071 0.84755 0.98236 0.05300
H 	H 	0.23093 0.97690 0.94707 0.03800
C 	C 	0.41488 0.04345 0.54703 0.01300
C 	C 	0.46265 0.41511 0.54891 0.02300
S 	S 	0.38939 0.11737 0.56846 0.02200
C 	C 	0.45972 0.33751 0.56459 -0.02400
H 	H 	0.38810 0.60288 0.97480 0.04900
S 	S 	0.59050 0.89285 0.51710 0.02200
C 	C 	0.55431 0.96250 0.53714 -0.01400
O 	O 	0.55584 0.33612 0.87830 -0.36500
O 	O 	0.52966 0.28030 0.71490 -0.36000
O 	O 	0.04110 0.09464 0.27173 -0.70200
H 	H 	0.03633 0.10051 0.24768 0.15900
C 	C 	0.60346 0.93415 0.47900 -0.08600
C 	C 	0.94002 0.49735 0.51072 -0.01800
C 	C 	0.94186 0.52740 0.54333 -0.04400
S 	S 	0.92562 0.55027 0.47793 0.01100
H 	H 	0.90037 0.56797 0.54970 0.04700
C 	C 	0.60953 0.56928 0.53175 -0.05300
H 	H 	0.69442 0.61495 0.52170 0.04700
H 	H 	0.60580 0.72024 0.50607 0.04100
C 	C 	0.59582 0.53073 0.12662 0.02200
C 	C 	0.60447 0.66672 0.14935 -0.06600
C 	C 	0.65770 0.34269 0.00130 0.28000
C 	C 	0.78036 0.50331 0.89902 0.29000
C 	C 	0.72377 0.12642 0.89540 0.31000
C 	C 	0.94843 0.33465 0.93857 0.28200
Ni	Ni	0.57949 0.33779 0.92880 1.11400
Ni	Ni	0.77912 0.32122 0.88838 1.12400
Ni	Ni	0.69133 0.21205 0.95580 1.12000
O 	O 	0.57613 0.33832 0.98067 -0.36800
O 	O 	0.71910 0.29975 0.99488 -0.36800
O 	O 	0.80294 0.21080 0.88812 -0.38700
O 	O 	0.63157 0.24641 0.86089 -0.36500
O 	O 	0.86492 0.25691 0.95229 -0.37300
O 	O 	0.52048 0.14667 0.96953 -0.37200
O 	O 	0.92591 0.38144 0.91560 -0.37700
O 	O 	0.70629 0.47635 0.92378 -0.36900
O 	O 	0.78066 0.44207 0.87775 -0.36800
O 	O 	0.65544 0.11129 0.92101 -0.37100
O 	O 	0.69881 0.30787 0.92842 -0.71900
H 	H 	0.75770 0.36259 0.94080 0.15700
C 	C 	0.75986 0.48324 0.70679 0.29200
C 	C 	0.54161 0.21037 0.72558 0.28800
C 	C 	0.60946 0.32182 0.59545 0.28900
C 	C 	0.77047 0.13708 0.69111 0.32200
C 	C 	0.93152 0.37092 0.64307 0.26500
Ni	Ni	0.56791 0.32554 0.66693 1.11200
Ni	Ni	0.69220 0.20766 0.63595 1.11900
Ni	Ni	0.78920 0.31635 0.70401 1.12000
O 	O 	0.67711 0.46146 0.68452 -0.35800
O 	O 	0.76381 0.41766 0.72380 -0.37600
O 	O 	0.70241 0.11361 0.66533 -0.37100
O 	O 	0.52542 0.12382 0.64659 -0.38500
O 	O 	0.92278 0.39927 0.67365 -0.36300
O 	O 	0.64625 0.21835 0.72872 -0.35400
O 	O 	0.86804 0.28228 0.63331 -0.36700
O 	O 	0.61802 0.37613 0.62035 -0.37900
O 	O 	0.66310 0.27090 0.59575 -0.37700
O 	O 	0.84295 0.22397 0.69722 -0.39300
O 	O 	0.69131 0.29691 0.66613 -0.69800
H 	H 	0.74145 0.35396 0.65417 0.14500
C 	C 	0.89858 0.73604 0.84713 0.28000
C 	C 	0.84221 0.97081 0.74715 0.28400
C 	C 	0.91739 0.73712 0.75327 0.29900
C 	C 	0.82177 0.97537 0.84008 0.25800
Ni	Ni	0.81973 0.82830 0.79583 1.11400
O 	O 	0.82738 0.72278 0.82203 -0.36400
O 	O 	0.77103 0.90958 0.76793 -0.36100
O 	O 	0.86622 0.78782 0.75275 -0.36700
O 	O 	0.77829 0.88412 0.83626 -0.35900
O 	O 	0.89059 0.03513 0.81737 -0.35500
O 	O 	0.57689 0.80695 0.44199 -0.37200
C 	C 	0.53110 0.93257 0.17655 0.30300
O 	O 	0.51992 0.92466 0.14392 -0.37200
C 	C 	0.80318 0.99106 0.32216 0.29600
C 	C 	0.81670 0.03816 0.23343 0.28100
Ni	Ni	0.96829 0.16384 0.28663 1.11100
Ni	Ni	0.94544 0.96451 0.27459 1.10900
O 	O 	0.82207 0.07139 0.31034 -0.36700
O 	O 	0.81138 0.96782 0.25093 -0.38500
O 	O 	0.87404 0.12594 0.24444 -0.37800
O 	O 	0.88081 0.96438 0.31889 -0.39600
C 	C 	0.64333 0.98356 0.19154 -0.06500
C 	C 	0.72842 0.01476 0.20889 -0.00800
C 	C 	0.68881 0.92475 0.33334 -0.04200
C 	C 	0.59647 0.86365 0.34301 -0.02900
C 	C 	0.48884 0.07017 0.51979 -0.06100
C 	C 	0.55496 0.02584 0.51422 0.02600
C 	C 	0.58781 0.01296 0.48210 -0.01400
H 	H 	0.49297 0.12263 0.50302 0.05500
H 	H 	0.57564 0.04670 0.46077 0.05400
C 	C 	0.99921 0.50384 0.56746 0.00600
C 	C 	0.00676 0.43855 0.61870 -0.04700
C 	C 	0.96861 0.49281 0.60138 -0.03400
H 	H 	0.90261 0.50719 0.61097 0.04900
C 	C 	0.56936 0.47378 0.53429 0.00100
S 	S 	0.65574 0.42999 0.54208 0.02800
C 	C 	0.56681 0.33840 0.56444 -0.07000
C 	C 	0.78194 0.06806 0.70912 -0.04500
C 	C 	0.80281 0.01850 0.72602 -0.01800
C 	C 	0.86553 0.65110 0.73458 -0.03500
C 	C 	0.81792 0.57619 0.72061 -0.03200
S 	S 	0.18166 0.46368 0.93988 0.03500
C 	C 	0.06924 0.35704 0.94419 -0.05700
C 	C 	0.70826 0.59720 0.11735 -0.00200
C 	C 	0.76324 0.58130 0.09051 -0.05500
C 	C 	0.71144 0.49082 0.07695 0.01700
C 	C 	0.60304 0.42210 0.08808 0.00100
C 	C 	0.53952 0.44281 0.11092 -0.05300
S 	S 	0.73056 0.70108 0.12989 0.03300
S 	S 	0.54772 0.33554 0.06037 0.02900
C 	C 	0.66188 0.37777 0.03508 -0.06300
C 	C 	0.74484 0.46651 0.04678 -0.02500
H 	H 	0.84114 0.63738 0.08015 0.04800
H 	H 	0.81880 0.51489 0.03258 0.04100
C 	C 	0.73569 0.05241 0.88021 -0.04600
C 	C 	0.76815 0.00901 0.86330 -0.00800
C 	C 	0.82478 0.59528 0.88707 -0.03600
C 	C 	0.86005 0.66456 0.87106 -0.03100
