data_crystal

_cell_length_a 24.85816
_cell_length_b 22.09306
_cell_length_c 31.89287
_cell_angle_alpha 104.01390
_cell_angle_beta  115.93925
_cell_angle_gamma 111.52538

_symmetry_space_group_name_	'P 1'
_symmetry_space_group_name_H-M	'P 1'

loop_
_symmetry_equiv_pos_as_xyz
  x,y,z

loop_
_atom_site_label
_atom_site_type_symbol
_atom_site_fract_x
_atom_site_fract_y
_atom_site_fract_z
_atom_site_charge
C 	C 	0.76466 0.53024 0.97582 0.00900
C 	C 	0.81631 0.53374 0.02062 -0.00600
C 	C 	0.79895 0.47415 0.03099 -0.03500
C 	C 	0.73014 0.41014 0.99639 0.04900
C 	C 	0.67749 0.40773 0.95245 -0.05400
C 	C 	0.69470 0.46791 0.94257 -0.01400
N 	N 	0.71580 0.34600 0.00437 -0.10700
C 	C 	0.52085 0.23644 0.98734 0.02200
C 	C 	0.52724 0.20345 0.94776 -0.01900
C 	C 	0.59045 0.23964 0.95238 -0.04800
C 	C 	0.64916 0.30814 0.99795 0.04600
C 	C 	0.64303 0.33985 0.03807 -0.03000
C 	C 	0.57913 0.30444 0.03269 -0.01100
C 	C 	0.77828 0.21346 0.94288 0.06800
C 	C 	0.79172 0.23001 0.99307 -0.09100
C 	C 	0.77002 0.27261 0.01257 0.02100
C 	C 	0.73490 0.29929 0.98228 0.02800
C 	C 	0.71994 0.28118 0.93125 -0.03000
C 	C 	0.74200 0.23878 0.91190 -0.04500
H 	H 	0.87029 0.58204 0.04678 0.05800
H 	H 	0.83955 0.47660 0.06502 0.06100
H 	H 	0.62414 0.35858 0.92521 0.06200
H 	H 	0.65428 0.46525 0.90827 0.06300
H 	H 	0.48247 0.15078 0.91268 0.06800
H 	H 	0.59327 0.21510 0.92029 0.06100
H 	H 	0.68783 0.39233 0.07325 0.05800
H 	H 	0.57457 0.33026 0.06345 0.06000
H 	H 	0.81981 0.21058 0.01721 0.10200
H 	H 	0.78127 0.28580 0.05160 0.05100
H 	H 	0.69049 0.29883 0.90641 0.05700
H 	H 	0.73109 0.22579 0.87297 0.06600
C 	C 	0.70910 0.50083 0.44815 0.03500
C 	C 	0.75603 0.50525 0.49565 -0.02200
C 	C 	0.73618 0.44433 0.50440 -0.05600
C 	C 	0.66940 0.37847 0.46578 0.08400
C 	C 	0.62043 0.37583 0.41972 -0.06000
C 	C 	0.64064 0.43657 0.41074 -0.01700
N 	N 	0.65440 0.31287 0.47186 -0.14000
C 	C 	0.45638 0.19354 0.44840 0.03600
C 	C 	0.46269 0.16992 0.40678 -0.02400
C 	C 	0.52737 0.20917 0.41389 -0.05900
C 	C 	0.58658 0.27237 0.46303 0.08300
C 	C 	0.58006 0.29544 0.50455 -0.05500
C 	C 	0.51529 0.25644 0.49728 -0.01700
C 	C 	0.73413 0.19673 0.41839 0.03300
C 	C 	0.74075 0.20714 0.46596 -0.01700
C 	C 	0.71215 0.24307 0.48229 -0.05400
C 	C 	0.67639 0.26860 0.45122 0.08500
C 	C 	0.66606 0.25407 0.40180 -0.05900
C 	C 	0.69533 0.21870 0.38577 -0.01900
H 	H 	0.80876 0.55504 0.52498 0.05800
H 	H 	0.77371 0.44715 0.54028 0.06400
H 	H 	0.56826 0.32572 0.38984 0.05700
H 	H 	0.60392 0.43294 0.37408 0.06200
H 	H 	0.41710 0.12204 0.36864 0.05700
H 	H 	0.53103 0.19142 0.38105 0.05600
H 	H 	0.62534 0.34389 0.54245 0.06300
H 	H 	0.51050 0.27571 0.52934 0.06500
H 	H 	0.76984 0.18922 0.49096 0.06800
H 	H 	0.71943 0.25300 0.51990 0.06700
H 	H 	0.63535 0.26972 0.37588 0.05600
H 	H 	0.68886 0.20948 0.34847 0.05600
C 	C 	0.35338 0.55459 0.99071 -0.00700
C 	C 	0.36429 0.57244 0.95462 0.00700
H 	H 	0.37561 0.59810 0.06870 0.05100
H 	H 	0.34169 0.52878 0.91623 0.05500
C 	C 	0.31010 0.53378 0.47727 0.03300
C 	C 	0.32182 0.55107 0.44133 -0.01500
H 	H 	0.33046 0.57815 0.55456 0.05700
H 	H 	0.30026 0.50710 0.40345 0.06300
Zn	Zn	0.18559 0.16334 0.00616 1.19900
Zn	Zn	0.06697 0.10044 0.88965 1.19900
O 	O 	0.02983 0.06535 0.81181 -0.42800
C 	C 	0.26069 0.12586 0.97097 0.32200
C 	C 	0.19286 0.26080 0.95687 0.32600
O 	O 	0.26737 0.16145 0.01415 -0.40100
O 	O 	0.19766 0.08522 0.92518 -0.35300
O 	O 	0.08955 0.11455 0.96247 -0.77900
O 	O 	0.13696 0.20368 0.90951 -0.42800
O 	O 	0.20986 0.25672 0.00104 -0.40400
O 	O 	0.93527 0.03536 0.92148 -0.45000
Zn	Zn	0.01106 0.06418 0.03182 1.20600
C 	C 	0.93439 0.08764 0.95120 0.33600
O 	O 	0.05041 0.07208 0.10191 -0.44500
O 	O 	0.96776 0.11087 0.00234 -0.43400
O 	O 	0.05762 0.02793 0.01226 -0.88200
H 	H 	0.10954 0.05553 0.03983 0.18000
Zn	Zn	0.13794 0.13635 0.48496 1.19200
Zn	Zn	0.02186 0.07752 0.37040 1.19800
O 	O 	0.99116 0.04268 0.29384 -0.39600
C 	C 	0.20319 0.09885 0.43978 0.34400
C 	C 	0.14753 0.23811 0.44015 0.35100
O 	O 	0.21555 0.13250 0.48593 -0.43700
O 	O 	0.13792 0.05979 0.39645 -0.33800
O 	O 	0.04220 0.09072 0.44267 -0.77900
O 	O 	0.09459 0.18088 0.39199 -0.42300
O 	O 	0.16300 0.23186 0.48339 -0.43400
O 	O 	0.88814 0.01558 0.40089 -0.43400
Zn	Zn	0.95866 0.03717 0.51041 1.21000
C 	C 	0.88704 0.06675 0.43145 0.34600
O 	O 	0.99932 0.04550 0.58076 -0.43300
O 	O 	0.91436 0.08348 0.48133 -0.45900
O 	O 	0.00652 0.00322 0.49077 -0.90400
H 	H 	0.05827 0.03059 0.51875 0.16600
C 	C 	0.08078 0.06696 0.73616 0.07500
C 	C 	0.07199 0.05740 0.68810 -0.02100
H 	H 	0.11119 0.10027 0.68797 0.05600
I 	I 	0.17047 0.16652 0.80724 -0.06700
C 	C 	0.08499 0.01282 0.19561 0.07900
C 	C 	0.07418 0.00854 0.23460 -0.01100
H 	H 	0.11428 0.01206 0.26963 0.08800
I 	I 	0.18180 0.03014 0.20802 -0.06200
C 	C 	0.26805 0.45560 0.46367 -0.00000
C 	C 	0.19309 0.41487 0.43066 0.13700
C 	C 	0.15405 0.34266 0.42151 -0.01800
C 	C 	0.18919 0.31095 0.44566 -0.10700
C 	C 	0.26425 0.35092 0.47727 0.21000
C 	C 	0.30315 0.42286 0.48610 -0.09800
H 	H 	0.09640 0.31207 0.39688 0.07200
H 	H 	0.36081 0.45371 0.51096 0.08900
Cl	Cl	0.14746 0.45452 0.40189 -0.30500
Cl	Cl	0.31038 0.31120 0.50531 -0.31600
C 	C 	0.23357 0.33260 0.96072 -0.10500
C 	C 	0.30842 0.37152 0.99005 0.19400
C 	C 	0.34686 0.44294 0.99793 -0.12400
C 	C 	0.31148 0.47625 0.97686 0.01400
C 	C 	0.23657 0.43633 0.94578 0.13100
C 	C 	0.19797 0.36462 0.93757 -0.01900
H 	H 	0.40445 0.47312 0.02126 0.10900
H 	H 	0.14042 0.33475 0.91458 0.08100
Cl	Cl	0.35480 0.33125 0.01663 -0.30200
Cl	Cl	0.19055 0.47643 0.91834 -0.31000
C 	C 	0.84854 0.10002 0.40864 -0.12800
C 	C 	0.77376 0.05685 0.37295 0.21800
C 	C 	0.73528 0.09013 0.37189 -0.10200
C 	C 	0.77133 0.16659 0.40461 0.00200
C 	C 	0.84557 0.21109 0.43203 0.13600
C 	C 	0.88394 0.17760 0.43385 -0.01600
H 	H 	0.67767 0.05609 0.34800 0.09000
H 	H 	0.94163 0.21158 0.45880 0.06400
Cl	Cl	0.89142 0.30847 0.46751 -0.30000
C 	C 	0.73419 0.56050 0.43547 -0.00100
C 	C 	0.78172 0.56802 0.42162 -0.09900
H 	H 	0.79659 0.52768 0.41752 0.09300
C 	C 	0.26282 0.11367 0.43581 -0.09600
C 	C 	0.27333 0.14773 0.40561 0.21300
C 	C 	0.33493 0.16951 0.40740 -0.09300
C 	C 	0.38633 0.15771 0.43904 0.00100
C 	C 	0.37334 0.11876 0.46602 0.14000
C 	C 	0.31205 0.09760 0.46474 -0.01500
H 	H 	0.34427 0.19845 0.38590 0.09000
H 	H 	0.30300 0.06928 0.48664 0.07300
Cl	Cl	0.21217 0.16790 0.36804 -0.31000
Cl	Cl	0.43313 0.09565 0.50116 -0.31500
C 	C 	0.88431 0.10863 0.92607 -0.11800
C 	C 	0.91060 0.18125 0.93322 0.20200
C 	C 	0.87129 0.21337 0.93243 -0.09200
C 	C 	0.80584 0.17310 0.92437 -0.01500
C 	C 	0.77482 0.09695 0.90873 0.14600
C 	C 	0.81384 0.06473 0.90887 -0.02300
H 	H 	0.89401 0.27123 0.94210 0.08900
H 	H 	0.79172 0.00743 0.90032 0.07700
Cl	Cl	0.99522 0.23434 0.94748 -0.34600
Cl	Cl	0.68944 0.04291 0.89304 -0.31000
C 	C 	0.78476 0.59087 0.96287 0.01100
C 	C 	0.79283 0.58173 0.92112 0.13100
Cl	Cl	0.77171 0.49532 0.87960 -0.31000
C 	C 	0.45197 0.20195 0.97996 -0.01600
C 	C 	0.39421 0.20065 0.94141 0.14600
C 	C 	0.33041 0.17109 0.93666 -0.01400
C 	C 	0.32441 0.14587 0.97165 -0.11700
C 	C 	0.38170 0.14596 0.00968 0.22700
C 	C 	0.44491 0.17329 0.01330 -0.07000
H 	H 	0.28673 0.17168 0.90771 0.08300
H 	H 	0.48900 0.17347 0.04264 0.09000
Cl	Cl	0.40254 0.24038 0.90115 -0.30800
Cl	Cl	0.37496 0.11167 0.05279 -0.30800
C 	C 	0.38339 0.61147 0.04048 0.01900
C 	C 	0.33881 0.59108 0.52642 -0.02000
Zn	Zn	0.03095 0.01293 0.94244 1.21100
C 	C 	0.04330 0.01414 0.10899 0.32300
C 	C 	0.03973 0.01845 0.78667 0.31400
Zn	Zn	0.98141 0.98932 0.42150 1.21900
C 	C 	0.00198 0.99527 0.27024 0.31200
C 	C 	0.01183 0.99387 0.64001 -0.08000
C 	C 	0.02994 0.01148 0.73652 -0.09200
C 	C 	0.01217 0.00034 0.22883 -0.07600
C 	C 	0.03284 0.00773 0.14990 -0.07400
C 	C 	0.99891 0.99016 0.58959 0.32000
Cl	Cl	0.85181 0.06240 0.03639 -0.31900
Cl	Cl	0.81262 0.03538 0.52646 -0.32800
Cl	Cl	0.65495 0.60470 0.45763 -0.29600
Cl	Cl	0.72784 0.96163 0.32956 -0.35700
H 	H 	0.21418 0.95902 0.90743 0.07000
Cl	Cl	0.33037 0.94203 0.92789 -0.31600
Cl	Cl	0.87098 0.63628 0.39690 -0.31100
C 	C 	0.42302 0.68575 0.05381 -0.08000
C 	C 	0.43282 0.70400 0.01750 0.11900
C 	C 	0.40371 0.64678 0.96782 -0.09800
N 	N 	0.46974 0.78115 0.03074 -0.15000
C 	C 	0.62785 0.84854 0.00137 0.08800
C 	C 	0.56096 0.83509 0.96569 -0.04900
C 	C 	0.50827 0.81191 0.97452 -0.07100
C 	C 	0.52257 0.80312 0.01984 0.10000
C 	C 	0.58953 0.81647 0.05527 -0.05100
C 	C 	0.64178 0.83870 0.04597 -0.03600
C 	C 	0.33816 0.86835 0.99909 0.01000
C 	C 	0.40606 0.90884 0.04720 0.01100
C 	C 	0.44975 0.88067 0.05674 -0.07400
C 	C 	0.42592 0.81176 0.01839 0.11700
C 	C 	0.35819 0.77193 0.96961 -0.09300
C 	C 	0.31452 0.79996 0.96029 -0.00100
H 	H 	0.44527 0.72933 0.09209 0.06800
H 	H 	0.41041 0.65987 0.93919 0.06800
H 	H 	0.54951 0.84169 0.93078 0.06900
H 	H 	0.45636 0.79979 0.94586 0.06200
H 	H 	0.60093 0.80944 0.09000 0.05700
H 	H 	0.69277 0.84748 0.07309 0.06600
H 	H 	0.42486 0.96193 0.07724 0.05800
H 	H 	0.50177 0.91180 0.09427 0.06700
H 	H 	0.33977 0.71996 0.93880 0.06800
H 	H 	0.26234 0.76866 0.92283 0.05500
C 	C 	0.37757 0.66520 0.53910 -0.05600
C 	C 	0.38773 0.68286 0.50273 0.08500
C 	C 	0.36030 0.62521 0.45384 -0.05900
N 	N 	0.42254 0.75968 0.51476 -0.14000
C 	C 	0.57893 0.82623 0.48364 0.03300
C 	C 	0.51099 0.81020 0.44740 -0.01600
C 	C 	0.45906 0.78772 0.45702 -0.05900
C 	C 	0.47514 0.78232 0.50367 0.08200
C 	C 	0.54336 0.79910 0.54000 -0.05600
C 	C 	0.59499 0.82086 0.53004 -0.02100
C 	C 	0.28576 0.84069 0.47923 0.03500
C 	C 	0.35591 0.88582 0.52531 -0.01300
C 	C 	0.40100 0.85933 0.53620 -0.05400
C 	C 	0.37678 0.78800 0.50079 0.08300
C 	C 	0.30721 0.74406 0.45337 -0.05700
C 	C 	0.26189 0.77009 0.44308 -0.02000
H 	H 	0.39855 0.70909 0.57678 0.06400
H 	H 	0.36706 0.63775 0.42508 0.06300
H 	H 	0.49814 0.81410 0.41142 0.06000
H 	H 	0.40628 0.77331 0.42789 0.05800
H 	H 	0.55621 0.79504 0.57591 0.05800
H 	H 	0.64729 0.83305 0.55819 0.05400
H 	H 	0.37526 0.94108 0.55287 0.06800
H 	H 	0.45457 0.89385 0.57245 0.06400
H 	H 	0.28849 0.69038 0.42434 0.06300
H 	H 	0.20826 0.73551 0.40683 0.05900
O 	O 	0.06121 0.97984 0.80700 -0.46400
O 	O 	0.07288 0.89543 0.88448 -0.49100
O 	O 	0.00410 0.99865 0.87248 -0.87800
O 	O 	0.12764 0.99496 0.96382 -0.44100
Zn	Zn	0.87966 0.87896 0.89741 1.17800
Zn	Zn	0.00694 0.92695 0.99902 1.19100
C 	C 	0.88044 0.77782 0.94475 0.34700
C 	C 	0.84202 0.93423 0.96173 0.33100
O 	O 	0.95012 0.82231 0.97959 -0.42900
O 	O 	0.84578 0.78500 0.90298 -0.45000
O 	O 	0.82249 0.90790 0.91251 -0.47000
O 	O 	0.90680 0.95687 0.00032 -0.42900
O 	O 	0.97186 0.91150 0.92334 -0.77900
O 	O 	0.03905 0.95876 0.07695 -0.38700
Zn	Zn	0.03091 0.93791 0.84672 1.18700
C 	C 	0.12407 0.93725 0.93547 0.34700
H 	H 	0.95302 0.97920 0.84752 0.16300
O 	O 	0.01453 0.95099 0.28848 -0.43600
O 	O 	0.01597 0.86575 0.36355 -0.46900
O 	O 	0.95581 0.97599 0.35184 -0.86500
O 	O 	0.07669 0.96865 0.44255 -0.45300
Zn	Zn	0.82860 0.85560 0.37633 1.18300
Zn	Zn	0.95530 0.90214 0.47685 1.19300
C 	C 	0.83022 0.74963 0.41960 0.35300
C 	C 	0.79094 0.90785 0.44154 0.34800
O 	O 	0.89912 0.79697 0.45692 -0.43100
O 	O 	0.79491 0.76028 0.38008 -0.44600
O 	O 	0.77107 0.88257 0.39227 -0.44600
O 	O 	0.85560 0.92953 0.47958 -0.45700
O 	O 	0.92047 0.88796 0.40146 -0.78200
O 	O 	0.99199 0.93413 0.55573 -0.41100
Zn	Zn	0.97741 0.90970 0.32524 1.19800
C 	C 	0.07079 0.90959 0.41344 0.34500
H 	H 	0.90532 0.95883 0.32726 0.16300
C 	C 	0.96026 0.93899 0.64033 0.07300
C 	C 	0.97041 0.94742 0.68864 -0.01000
H 	H 	0.93108 0.90481 0.68883 0.03600
I 	I 	0.86344 0.84636 0.56845 -0.08100
C 	C 	0.95966 0.99445 0.18272 0.08300
C 	C 	0.97057 0.99875 0.14382 -0.00400
H 	H 	0.93010 0.99422 0.10840 0.07800
I 	I 	0.86130 0.97393 0.16868 -0.09900
C 	C 	0.63289 0.84713 0.47243 -0.00100
C 	C 	0.62709 0.79351 0.43329 0.13700
C 	C 	0.67771 0.81446 0.42232 -0.01900
C 	C 	0.73573 0.88823 0.45128 -0.11200
C 	C 	0.74195 0.94179 0.49077 0.20100
C 	C 	0.69047 0.92109 0.50105 -0.09700
H 	H 	0.67271 0.77299 0.39195 0.07100
H 	H 	0.69512 0.96256 0.53117 0.08600
Cl	Cl	0.55798 0.69940 0.39894 -0.29500
C 	C 	0.23789 0.86831 0.46742 0.00300
C 	C 	0.20671 0.87241 0.49495 0.13200
C 	C 	0.15439 0.88939 0.47852 -0.01700
C 	C 	0.13137 0.90023 0.43386 -0.13000
C 	C 	0.16427 0.89842 0.40740 0.20600
C 	C 	0.21797 0.88371 0.42485 -0.10200
H 	H 	0.12981 0.89144 0.49930 0.05400
H 	H 	0.24265 0.88180 0.40413 0.09300
Cl	Cl	0.23029 0.85308 0.54848 -0.30500
Cl	Cl	0.13813 0.91322 0.35177 -0.34300
C 	C 	0.78635 0.91328 0.97092 -0.12200
C 	C 	0.78717 0.96737 0.00576 0.21000
C 	C 	0.73525 0.94578 0.01557 -0.05800
C 	C 	0.68257 0.87045 0.99101 -0.05200
C 	C 	0.68222 0.81640 0.95658 0.15400
C 	C 	0.73353 0.83801 0.94631 -0.01800
H 	H 	0.73580 0.98755 0.04221 0.08400
H 	H 	0.73338 0.79607 0.92014 0.07600
Cl	Cl	0.61878 0.72123 0.92703 -0.31800
C 	C 	0.29147 0.89725 0.98917 -0.02400
C 	C 	0.27877 0.92489 0.95282 0.15100
C 	C 	0.22528 0.93997 0.93670 -0.02500
C 	C 	0.18552 0.92982 0.95774 -0.11000
C 	C 	0.20162 0.90729 0.99693 0.16600
C 	C 	0.25424 0.89071 0.01229 -0.03900
H 	H 	0.26469 0.87062 0.04097 0.08200
Cl	Cl	0.15431 0.89669 0.02547 -0.34000
C 	C 	0.71396 0.61218 0.43977 0.13800
C 	C 	0.74284 0.67181 0.43160 -0.01700
C 	C 	0.79301 0.68129 0.42033 -0.11600
C 	C 	0.81136 0.62824 0.41423 0.20900
H 	H 	0.72851 0.71248 0.43621 0.07400
C 	C 	0.82086 0.64258 0.91376 -0.01400
C 	C 	0.84256 0.71295 0.94850 -0.11600
C 	C 	0.83254 0.72167 0.98920 0.20000
C 	C 	0.80303 0.66054 0.99584 -0.12100
H 	H 	0.82827 0.63570 0.88225 0.07000
H 	H 	0.79646 0.66769 0.02777 0.10600
Cl	Cl	0.85838 0.80931 0.03300 -0.31200
