data_crystal

_cell_length_a 20.81364
_cell_length_b 20.47235
_cell_length_c 21.03649
_cell_angle_alpha 89.92030
_cell_angle_beta  89.90432
_cell_angle_gamma 89.90432

_symmetry_space_group_name_	'P 1'
_symmetry_space_group_name_H-M	'P 1'

loop_
_symmetry_equiv_pos_as_xyz
  x,y,z

loop_
_atom_site_label
_atom_site_type_symbol
_atom_site_fract_x
_atom_site_fract_y
_atom_site_fract_z
_atom_site_charge
Co	Co	0.96443 0.02778 0.42240 1.19500
Co	Co	0.04876 0.95238 0.59727 1.19400
Co	Co	0.94674 0.04778 0.57527 1.19200
Co	Co	0.06801 0.93426 0.44403 1.19100
C 	C 	0.00337 0.10620 0.30917 0.34700
Co	Co	0.03275 0.96418 0.29713 1.17300
Co	Co	0.97977 0.01016 0.72295 1.16800
C 	C 	0.04496 0.83018 0.35003 0.31200
O 	O 	0.88827 0.97293 0.71026 -0.38000
O 	O 	0.99743 0.00856 0.62469 -0.76100
C 	C 	0.84776 0.99702 0.66826 0.30800
O 	O 	0.91239 0.07448 0.48935 -0.42800
O 	O 	0.09784 0.90232 0.53008 -0.44200
C 	C 	0.99765 0.86793 0.69743 0.32000
O 	O 	0.02507 0.01071 0.50962 -0.55500
C 	C 	0.96214 0.14897 0.67856 0.31800
C 	C 	0.89208 0.95488 0.31959 0.31300
C 	C 	0.16763 0.97827 0.34276 0.30800
O 	O 	0.86419 0.00112 0.60768 -0.36500
O 	O 	0.94201 0.92352 0.29612 -0.38000
O 	O 	0.89135 0.97351 0.37989 -0.36300
O 	O 	0.01477 0.91581 0.73540 -0.39300
O 	O 	0.99737 0.87669 0.63566 -0.38600
O 	O 	0.94121 0.10424 0.71849 -0.38900
O 	O 	0.96036 0.13885 0.61652 -0.35200
O 	O 	0.12142 0.00643 0.30980 -0.37100
O 	O 	0.15672 0.94809 0.39801 -0.35800
O 	O 	0.02415 0.98079 0.39496 -0.76200
C 	C 	0.12368 0.01292 0.71010 0.32100
O 	O 	0.07224 0.04692 0.72658 -0.37700
O 	O 	0.12490 0.97542 0.65836 -0.35700
O 	O 	0.99109 0.05351 0.27593 -0.40400
O 	O 	0.99182 0.10807 0.37049 -0.36500
O 	O 	0.07227 0.87189 0.31104 -0.38900
O 	O 	0.03018 0.84842 0.40840 -0.36900
Co	Co	0.97451 0.40724 0.04886 1.19600
Co	Co	0.03756 0.59090 0.96526 1.19400
Co	Co	0.94178 0.56218 0.06186 1.19100
Co	Co	0.06705 0.43563 0.94893 1.18900
C 	C 	0.90134 0.29853 0.98825 0.30100
Co	Co	0.04399 0.28270 0.97980 1.16700
Co	Co	0.95615 0.71438 0.02292 1.17700
C 	C 	0.17669 0.34454 0.99103 0.26400
O 	O 	0.98958 0.71414 0.11578 -0.35800
O 	O 	0.98585 0.61599 0.02090 -0.75800
C 	C 	0.97877 0.66778 0.15853 0.31100
O 	O 	0.91956 0.47271 0.09595 -0.44100
O 	O 	0.09041 0.52527 0.91609 -0.43600
C 	C 	0.09961 0.71897 0.00141 0.36300
O 	O 	0.02554 0.50123 0.02595 -0.55000
C 	C 	0.83096 0.64440 0.02576 0.30600
C 	C 	0.02979 0.29350 0.12220 0.33200
C 	C 	0.03656 0.33854 0.84941 0.31000
O 	O 	0.94163 0.61658 0.14602 -0.36400
O 	O 	0.01692 0.25763 0.07191 -0.36900
O 	O 	0.01246 0.35546 0.12438 -0.35900
O 	O 	0.04411 0.74701 0.98876 -0.40700
O 	O 	0.10825 0.65579 0.99193 -0.38500
O 	O 	0.86425 0.69013 0.05436 -0.38100
O 	O 	0.85742 0.58678 0.01510 -0.36400
O 	O 	0.07044 0.29934 0.88582 -0.39000
O 	O 	0.02119 0.39753 0.86974 -0.36700
O 	O 	0.03169 0.38278 0.99834 -0.77500
C 	C 	0.96124 0.68134 0.88449 0.31800
O 	O 	0.92616 0.71040 0.92846 -0.38400
O 	O 	0.97894 0.62020 0.89162 -0.37600
O 	O 	0.94813 0.27257 0.95419 -0.38300
O 	O 	0.90120 0.36153 0.00062 -0.35800
O 	O 	0.13796 0.29693 0.00973 -0.33100
O 	O 	0.15750 0.39114 0.95109 -0.35700
Co	Co	0.59678 0.03009 0.05035 1.20000
Co	Co	0.41818 0.97970 0.95415 1.18400
Co	Co	0.44436 0.06647 0.06043 1.19300
Co	Co	0.57051 0.94337 0.94385 1.19000
C 	C 	0.70255 0.95855 0.12540 0.31100
Co	Co	0.72107 0.96325 0.98433 1.15900
Co	Co	0.29589 0.05632 0.01790 1.18100
C 	C 	0.67202 0.99136 0.85247 0.30900
O 	O 	0.31798 0.14376 0.06264 -0.37800
O 	O 	0.39249 0.02729 0.01351 -0.75100
C 	C 	0.36289 0.18223 0.03985 0.31100
O 	O 	0.53193 0.08576 0.09718 -0.44400
O 	O 	0.48331 0.92685 0.90494 -0.43800
C 	C 	0.32846 0.06693 0.88107 0.31500
O 	O 	0.50380 0.98378 0.01957 -0.55800
C 	C 	0.33829 0.01829 0.15095 0.30900
C 	C 	0.70934 0.10674 0.00968 0.31600
C 	C 	0.66460 0.83086 0.95654 0.32300
O 	O 	0.41970 0.15779 0.02509 -0.36300
O 	O 	0.74224 0.05396 0.02412 -0.39300
O 	O 	0.64644 0.10434 0.00582 -0.37300
O 	O 	0.30540 0.10007 0.92971 -0.37400
O 	O 	0.38716 0.04218 0.88282 -0.37200
O 	O 	0.29591 0.00827 0.10493 -0.36300
O 	O 	0.38928 0.05662 0.14284 -0.36500
O 	O 	0.70984 0.87270 0.94080 -0.39400
O 	O 	0.60325 0.84764 0.95372 -0.35500
O 	O 	0.62149 0.97423 0.99793 -0.77600
C 	C 	0.29151 0.91481 0.98042 0.33000
O 	O 	0.26538 0.97244 0.97106 -0.41400
O 	O 	0.35384 0.90588 0.97452 -0.36900
O 	O 	0.71891 0.92374 0.07487 -0.36000
O 	O 	0.64876 0.99376 0.12715 -0.36600
O 	O 	0.71582 0.00680 0.89513 -0.37300
O 	O 	0.61035 0.99261 0.86741 -0.37800
C 	C 	0.71972 0.68341 0.04466 -0.04000
C 	C 	0.76624 0.66051 0.00151 -0.04500
C 	C 	0.75889 0.67640 0.93694 0.09900
C 	C 	0.72003 0.72962 0.91954 -0.01500
C 	C 	0.68243 0.76143 0.96571 -0.10000
C 	C 	0.67615 0.73232 0.02600 0.15800
Br	Br	0.60751 0.75713 0.08198 -0.17000
H 	H 	0.72047 0.66687 0.09360 0.09000
H 	H 	0.72072 0.74739 0.87104 0.08400
Br	Br	0.79740 0.62308 0.87260 -0.19000
C 	C 	0.77626 0.18999 0.06257 -0.03900
C 	C 	0.74230 0.16995 0.00860 -0.06000
C 	C 	0.75166 0.20310 0.95081 0.10600
C 	C 	0.80316 0.24641 0.94431 -0.02000
C 	C 	0.84151 0.26151 0.99697 -0.09800
C 	C 	0.82435 0.23727 0.05733 0.14400
Br	Br	0.86402 0.26959 0.13305 -0.22400
H 	H 	0.76680 0.16722 0.10819 0.07600
H 	H 	0.81327 0.26807 0.89852 0.08700
Br	Br	0.69200 0.19366 0.88240 -0.19800
C 	C 	0.20627 0.75358 0.96148 -0.05600
C 	C 	0.15665 0.76081 0.00617 -0.05000
C 	C 	0.15767 0.81417 0.04838 0.12100
C 	C 	0.20406 0.86271 0.04122 0.00700
C 	C 	0.24970 0.85871 0.99240 -0.11400
C 	C 	0.25169 0.80300 0.95312 0.14900
Br	Br	0.31203 0.79585 0.88421 -0.18400
H 	H 	0.20738 0.71129 0.93065 0.09900
H 	H 	0.20379 0.90445 0.07288 0.06400
Br	Br	0.09744 0.82109 0.11709 -0.22800
C 	C 	0.28754 0.31717 0.95529 -0.05800
C 	C 	0.24592 0.33675 0.00449 -0.02300
C 	C 	0.26597 0.32765 0.06776 0.12100
C 	C 	0.31714 0.28511 0.08097 -0.02200
C 	C 	0.34823 0.25224 0.03105 -0.05900
C 	C 	0.34046 0.27679 0.96914 0.12100
Br	Br	0.40249 0.25735 0.90451 -0.17100
H 	H 	0.27637 0.32924 0.90638 0.09500
H 	H 	0.32718 0.27150 0.12976 0.08200
Br	Br	0.21982 0.36755 0.13655 -0.18200
C 	C 	0.74729 0.94123 0.69954 -0.02700
C 	C 	0.77938 0.99973 0.68576 -0.07800
C 	C 	0.75403 0.05821 0.70998 0.12800
C 	C 	0.70938 0.05602 0.75979 -0.02200
C 	C 	0.69026 0.99563 0.78502 -0.08100
C 	C 	0.70417 0.93846 0.75069 0.12500
Br	Br	0.66735 0.85631 0.77481 -0.20700
H 	H 	0.75874 0.89745 0.67336 0.09500
H 	H 	0.69239 0.10084 0.78089 0.09300
Br	Br	0.78157 0.14083 0.67714 -0.20300
C 	C 	0.27411 0.98967 0.80831 -0.03900
C 	C 	0.28706 0.05448 0.82573 -0.07500
C 	C 	0.25184 0.10558 0.79739 0.13100
C 	C 	0.20100 0.09131 0.75658 -0.03700
C 	C 	0.18444 0.02642 0.74340 -0.06700
C 	C 	0.22233 0.97525 0.76828 0.11900
Br	Br	0.20085 0.88542 0.75329 -0.19700
H 	H 	0.30153 0.95012 0.82933 0.07500
H 	H 	0.17272 0.13082 0.73702 0.08800
Br	Br	0.27225 0.19528 0.81328 -0.19000
C 	C 	0.30639 0.05185 0.25956 -0.03600
C 	C 	0.31881 0.00138 0.21617 -0.06400
C 	C 	0.29763 0.93774 0.23041 0.11500
C 	C 	0.25536 0.92760 0.28136 -0.02700
C 	C 	0.23310 0.98088 0.31704 -0.08700
C 	C 	0.26342 0.04183 0.30989 0.13900
Br	Br	0.24087 0.11381 0.36385 -0.18800
H 	H 	0.32519 0.10038 0.25077 0.08500
H 	H 	0.23470 0.87962 0.28881 0.07600
Br	Br	0.32279 0.86503 0.17848 -0.19500
C 	C 	0.75620 0.01237 0.21668 -0.02500
C 	C 	0.74228 0.95470 0.18342 -0.08400
C 	C 	0.76894 0.89503 0.20450 0.12900
C 	C 	0.81311 0.89477 0.25442 -0.03200
C 	C 	0.83164 0.95331 0.28357 -0.07700
C 	C 	0.80054 0.01192 0.26661 0.12500
Br	Br	0.82078 0.09263 0.30826 -0.19500
H 	H 	0.73462 0.05817 0.20196 0.07300
H 	H 	0.83570 0.84927 0.26825 0.08700
Br	Br	0.74514 0.81311 0.16757 -0.19700
C 	C 	0.93045 0.24948 0.73795 -0.02500
C 	C 	0.97699 0.21497 0.70302 -0.08500
C 	C 	0.04051 0.23841 0.70185 0.13600
C 	C 	0.05949 0.28670 0.74521 -0.03600
C 	C 	0.01436 0.31464 0.78693 -0.06400
C 	C 	0.94877 0.30151 0.77732 0.11500
Br	Br	0.88411 0.35607 0.81464 -0.19500
H 	H 	0.88049 0.23510 0.73570 0.08900
H 	H 	0.10981 0.29963 0.74905 0.08300
Br	Br	0.10136 0.20592 0.64101 -0.20000
C 	C 	0.04175 0.77042 0.75045 -0.02300
C 	C 	0.98883 0.80252 0.72385 -0.08600
C 	C 	0.92678 0.78035 0.73818 0.12800
C 	C 	0.91728 0.73866 0.78993 -0.02700
C 	C 	0.97032 0.71307 0.82256 -0.08700
C 	C 	0.03268 0.72443 0.79871 0.13400
Br	Br	0.10577 0.67822 0.83121 -0.22700
H 	H 	0.08997 0.78365 0.73599 0.08800
H 	H 	0.86898 0.72699 0.80512 0.08800
Br	Br	0.85621 0.80147 0.68409 -0.19800
C 	C 	0.07725 0.72972 0.29321 -0.03100
C 	C 	0.02949 0.76405 0.32664 -0.06400
C 	C 	0.96487 0.74575 0.31810 0.11700
C 	C 	0.94789 0.70603 0.26641 -0.02500
C 	C 	0.99557 0.68219 0.22513 -0.08300
C 	C 	0.06050 0.68908 0.24230 0.14200
Br	Br	0.12700 0.64782 0.19337 -0.19000
H 	H 	0.12747 0.73995 0.30232 0.08200
H 	H 	0.89763 0.69764 0.25586 0.07900
Br	Br	0.89947 0.77515 0.37569 -0.19700
C 	C 	0.00235 0.27244 0.23469 0.01000
C 	C 	0.04248 0.25980 0.18246 -0.08200
C 	C 	0.08376 0.20529 0.18427 0.14100
C 	C 	0.07569 0.15821 0.23150 -0.03500
C 	C 	0.02626 0.16475 0.27633 -0.06400
C 	C 	0.99270 0.22446 0.28089 0.10900
Br	Br	0.93041 0.24008 0.34666 -0.15900
H 	H 	0.97389 0.31679 0.23612 0.07700
H 	H 	0.10498 0.11440 0.23078 0.07300
Br	Br	0.15042 0.19353 0.12231 -0.23200
