data_crystal

_cell_length_a 25.90503
_cell_length_b 26.40004
_cell_length_c 36.67408
_cell_angle_alpha 95.51225
_cell_angle_beta  95.50922
_cell_angle_gamma 125.76997

_symmetry_space_group_name_	'P 1'
_symmetry_space_group_name_H-M	'P 1'

loop_
_symmetry_equiv_pos_as_xyz
  x,y,z

loop_
_atom_site_label
_atom_site_type_symbol
_atom_site_fract_x
_atom_site_fract_y
_atom_site_fract_z
_atom_site_charge
C 	C 	0.97079 0.03334 0.00196 0.10900
N 	N 	0.03391 0.06163 0.99965 -0.13800
C 	C 	0.05643 0.02634 0.99667 0.11100
N 	N 	0.01553 0.96274 0.99555 -0.14000
C 	C 	0.95270 0.93453 0.99797 0.10900
N 	N 	0.93035 0.96979 0.00132 -0.14000
C 	C 	0.93135 0.99283 0.45360 0.10400
N 	N 	0.99658 0.02934 0.45568 -0.13700
C 	C 	0.02803 0.00245 0.45633 0.11100
N 	N 	0.99397 0.93881 0.45451 -0.13900
C 	C 	0.92894 0.90209 0.45272 0.10900
N 	N 	0.89752 0.92913 0.45250 -0.13700
Cu	Cu	0.64582 0.24737 0.00391 0.92800
Cu	Cu	0.69703 0.25835 0.92492 0.86800
Cu	Cu	0.67156 0.34677 0.95719 0.89600
Cu	Cu	0.64158 0.36048 0.03227 0.89400
C 	C 	0.66528 0.29061 0.08241 0.30600
O 	O 	0.55110 0.20626 0.00485 -0.36300
C 	C 	0.65753 0.31204 0.87575 0.30300
O 	O 	0.69413 0.34589 0.00837 -0.64200
O 	O 	0.63388 0.25474 0.95117 -0.64100
O 	O 	0.68857 0.20496 0.99922 -0.37000
O 	O 	0.75864 0.27560 0.96615 -0.43900
O 	O 	0.63380 0.31442 0.07403 -0.38700
O 	O 	0.71474 0.43743 0.96543 -0.38400
C 	C 	0.71170 0.47107 0.99310 0.28500
C 	C 	0.52288 0.23130 0.99255 0.27500
O 	O 	0.55857 0.29109 0.98888 -0.39200
O 	O 	0.67500 0.44429 0.01813 -0.39300
O 	O 	0.67057 0.25650 0.05643 -0.36500
C 	C 	0.74328 0.23259 0.98686 0.28100
O 	O 	0.65694 0.34746 0.90357 -0.38200
O 	O 	0.65559 0.26219 0.88051 -0.42200
H 	H 	0.74105 0.37515 0.01906 0.16400
H 	H 	0.58885 0.22607 0.93696 0.17600
Cu	Cu	0.73718 0.33553 0.45696 0.92700
Cu	Cu	0.73550 0.29392 0.53848 0.87000
Cu	Cu	0.63524 0.30557 0.50455 0.89700
Cu	Cu	0.61708 0.33296 0.42898 0.89400
C 	C 	0.69002 0.31271 0.37837 0.30600
O 	O 	0.77551 0.42768 0.45447 -0.35900
C 	C 	0.68016 0.33273 0.58659 0.30700
O 	O 	0.63655 0.28491 0.45325 -0.64000
O 	O 	0.73051 0.34898 0.50980 -0.64100
O 	O 	0.78204 0.29464 0.46200 -0.37000
O 	O 	0.71499 0.23014 0.49864 -0.43900
O 	O 	0.66291 0.34091 0.38656 -0.38700
O 	O 	0.54201 0.25793 0.49625 -0.38000
C 	C 	0.50610 0.25888 0.46854 0.28100
C 	C 	0.74756 0.45342 0.46578 0.27300
O 	O 	0.68761 0.41670 0.47100 -0.39100
O 	O 	0.53242 0.29826 0.44493 -0.39300
O 	O 	0.72664 0.30978 0.40444 -0.36400
C 	C 	0.75627 0.24289 0.47643 0.27800
O 	O 	0.63258 0.31260 0.55842 -0.38600
O 	O 	0.73264 0.33809 0.58149 -0.42300
H 	H 	0.60850 0.23882 0.44269 0.16400
H 	H 	0.75724 0.39392 0.52272 0.17400
C 	C 	0.65489 0.34969 0.69396 -0.00600
C 	C 	0.70772 0.39752 0.72164 -0.03500
C 	C 	0.70461 0.39456 0.75930 -0.03500
C 	C 	0.64865 0.34375 0.76944 -0.00600
C 	C 	0.59406 0.29869 0.74186 -0.03500
C 	C 	0.59718 0.30167 0.70417 -0.03500
C 	C 	0.65069 0.33265 0.80705 0.04300
C 	C 	0.65295 0.32383 0.83863 -0.11100
C 	C 	0.66327 0.34435 0.65588 0.04400
C 	C 	0.67046 0.34003 0.62403 -0.11200
H 	H 	0.75231 0.43517 0.71398 0.03800
H 	H 	0.74679 0.42997 0.78048 0.03800
H 	H 	0.55037 0.25963 0.74948 0.04000
H 	H 	0.55586 0.26486 0.68295 0.04000
C 	C 	0.70218 0.28627 0.26901 -0.00400
C 	C 	0.65221 0.23060 0.24403 -0.03500
C 	C 	0.64945 0.22828 0.20556 -0.03400
C 	C 	0.69664 0.28165 0.19197 -0.00500
C 	C 	0.74911 0.33558 0.21698 -0.03500
C 	C 	0.75190 0.33788 0.25543 -0.03400
C 	C 	0.68633 0.28450 0.15316 0.04400
C 	C 	0.67775 0.28695 0.12067 -0.10400
C 	C 	0.69744 0.29392 0.30767 0.04400
C 	C 	0.69434 0.30130 0.34013 -0.10400
H 	H 	0.61390 0.19026 0.25431 0.03900
H 	H 	0.60904 0.18614 0.18639 0.04100
H 	H 	0.78610 0.37683 0.20670 0.03900
H 	H 	0.79104 0.38089 0.27457 0.04100
C 	C 	0.77243 0.65004 0.51093 -0.03800
C 	C 	0.79405 0.71161 0.50739 -0.05000
C 	C 	0.83050 0.74079 0.48000 0.03200
C 	C 	0.84490 0.70756 0.45581 -0.02200
C 	C 	0.82350 0.64575 0.45954 -0.00200
C 	C 	0.78704 0.61685 0.48714 0.01200
C 	C 	0.83856 0.61286 0.43561 0.01200
C 	C 	0.87460 0.64185 0.40805 -0.03800
C 	C 	0.89583 0.70319 0.40436 -0.05000
C 	C 	0.88148 0.73645 0.42826 0.03300
C 	C 	0.90482 0.79887 0.42561 -0.06000
C 	C 	0.89295 0.83308 0.45068 0.00600
C 	C 	0.85431 0.80342 0.47717 -0.06000
C 	C 	0.76489 0.55483 0.49029 -0.02800
C 	C 	0.77868 0.52144 0.46594 -0.06200
C 	C 	0.81651 0.55104 0.43911 -0.02600
H 	H 	0.74437 0.62822 0.53220 0.03800
H 	H 	0.78266 0.73666 0.52610 0.04100
H 	H 	0.88621 0.61690 0.38944 0.03900
H 	H 	0.92382 0.72497 0.38305 0.04100
H 	H 	0.93409 0.82169 0.40492 0.05000
H 	H 	0.84520 0.82991 0.49650 0.04900
H 	H 	0.73613 0.53214 0.51118 0.04100
H 	H 	0.82681 0.52519 0.42018 0.04800
C 	C 	0.78707 0.03337 0.50495 -0.04700
C 	C 	0.76348 0.06931 0.50858 -0.04000
C 	C 	0.78088 0.11632 0.48697 0.01000
C 	C 	0.82153 0.12666 0.46114 -0.00200
C 	C 	0.84539 0.09053 0.45752 -0.02100
C 	C 	0.82843 0.04401 0.47971 0.03100
C 	C 	0.88720 0.10179 0.43227 0.03300
C 	C 	0.90370 0.14805 0.41020 -0.05000
C 	C 	0.87982 0.18377 0.41369 -0.03800
C 	C 	0.83921 0.17380 0.43934 0.01100
C 	C 	0.81682 0.21096 0.44383 -0.02500
C 	C 	0.77729 0.20164 0.47016 -0.06800
C 	C 	0.75883 0.15366 0.49131 -0.02800
C 	C 	0.85431 0.00986 0.47704 -0.05700
C 	C 	0.89771 0.02256 0.45281 0.00800
C 	C 	0.91314 0.06769 0.43000 -0.06000
H 	H 	0.77358 0.99765 0.52204 0.03800
H 	H 	0.73203 0.06084 0.52841 0.03500
H 	H 	0.93546 0.15678 0.39054 0.04200
H 	H 	0.89339 0.21956 0.39664 0.03900
H 	H 	0.83045 0.24720 0.42710 0.05000
H 	H 	0.72813 0.14604 0.51151 0.03400
H 	H 	0.84250 0.97506 0.49464 0.04700
H 	H 	0.94609 0.07690 0.41100 0.05000
C 	C 	0.23102 0.18936 0.43059 -0.05000
C 	C 	0.29796 0.22505 0.43209 -0.03800
C 	C 	0.33333 0.20585 0.44899 0.01200
C 	C 	0.30118 0.15055 0.46468 -0.00200
C 	C 	0.23385 0.11478 0.46333 -0.02100
C 	C 	0.19860 0.13411 0.44607 0.03200
C 	C 	0.20175 0.05952 0.47905 0.03100
C 	C 	0.23712 0.04043 0.49606 -0.04700
C 	C 	0.30394 0.07580 0.49727 -0.03900
C 	C 	0.33629 0.13085 0.48162 0.01200
C 	C 	0.40323 0.16631 0.48265 -0.02500
C 	C 	0.43551 0.22160 0.46714 -0.06000
C 	C 	0.40038 0.24126 0.45036 -0.02500
C 	C 	0.13134 0.09769 0.44422 -0.05900
C 	C 	0.09914 0.04225 0.45963 0.00400
C 	C 	0.13467 0.02377 0.47738 -0.05600
H 	H 	0.20442 0.20470 0.41734 0.04100
H 	H 	0.32224 0.26754 0.42000 0.03700
H 	H 	0.21288 0.99803 0.50823 0.03900
H 	H 	0.33049 0.06031 0.51039 0.03800
H 	H 	0.43011 0.15074 0.49525 0.04300
H 	H 	0.42525 0.28420 0.43868 0.04500
H 	H 	0.10397 0.11181 0.43035 0.05000
H 	H 	0.11006 0.98161 0.48981 0.04900
C 	C 	0.78787 0.65026 0.92715 -0.03700
C 	C 	0.82034 0.71534 0.92782 -0.05000
C 	C 	0.84674 0.75807 0.96199 0.03300
C 	C 	0.83950 0.73508 0.99573 -0.02100
C 	C 	0.80697 0.66962 0.99506 -0.00000
C 	C 	0.78145 0.62712 0.96063 0.01200
C 	C 	0.80074 0.64677 0.02881 0.01000
C 	C 	0.82645 0.68944 0.06297 -0.03800
C 	C 	0.85884 0.75452 0.06365 -0.05100
C 	C 	0.86594 0.77773 0.03017 0.03200
C 	C 	0.90049 0.84316 0.03069 -0.06200
C 	C 	0.90926 0.86609 0.99715 0.00700
C 	C 	0.88160 0.82361 0.96288 -0.06000
C 	C 	0.75024 0.56212 0.96012 -0.02400
C 	C 	0.74439 0.53933 0.99373 -0.06100
C 	C 	0.76941 0.58168 0.02799 -0.02600
H 	H 	0.76810 0.61793 0.90056 0.03900
H 	H 	0.82535 0.73251 0.90175 0.04200
H 	H 	0.82172 0.67231 0.08904 0.03600
H 	H 	0.87882 0.78688 0.09024 0.04100
H 	H 	0.92208 0.87635 0.05708 0.04800
H 	H 	0.88860 0.84175 0.93706 0.04900
H 	H 	0.73017 0.52927 0.93369 0.04900
H 	H 	0.76510 0.56404 0.05390 0.03800
C 	C 	0.94139 0.18354 0.95246 -0.05100
C 	C 	0.90899 0.21117 0.95015 -0.03900
C 	C 	0.86463 0.19917 0.97357 0.01100
C 	C 	0.85383 0.16020 0.00006 -0.00300
C 	C 	0.88633 0.13224 0.00232 -0.02300
C 	C 	0.92979 0.14347 0.97817 0.03400
C 	C 	0.87413 0.09178 0.02807 0.03300
C 	C 	0.83098 0.08103 0.05211 -0.05000
C 	C 	0.79888 0.10900 0.04996 -0.03700
C 	C 	0.80942 0.14797 0.02369 0.01200
C 	C 	0.77501 0.17364 0.02020 -0.02500
C 	C 	0.78399 0.21069 0.99291 -0.06700
C 	C 	0.82986 0.22442 0.97018 -0.02800
C 	C 	0.95968 0.11310 0.97932 -0.05900
C 	C 	0.94567 0.07094 0.00399 0.00400
C 	C 	0.90395 0.06135 0.02882 -0.05900
H 	H 	0.97496 0.19275 0.93393 0.04000
H 	H 	0.91793 0.24140 0.92987 0.03400
H 	H 	0.82171 0.05045 0.07221 0.04200
H 	H 	0.76525 0.09972 0.06845 0.04000
H 	H 	0.74073 0.16413 0.03829 0.05100
H 	H 	0.83727 0.25336 0.94930 0.03100
H 	H 	0.99201 0.12051 0.96023 0.04900
H 	H 	0.89400 0.02949 0.04823 0.05100
C 	C 	0.25887 0.18518 0.95550 -0.04900
C 	C 	0.32362 0.21217 0.95359 -0.03900
C 	C 	0.35480 0.18910 0.97084 0.01300
C 	C 	0.32036 0.13799 0.98975 -0.00200
C 	C 	0.25527 0.11093 0.99175 -0.01900
C 	C 	0.22446 0.13474 0.97466 0.03200
C 	C 	0.22114 0.06034 0.01106 0.03000
C 	C 	0.25206 0.03679 0.02794 -0.04600
C 	C 	0.31667 0.06363 0.02594 -0.04000
C 	C 	0.35126 0.11450 0.00713 0.01300
C 	C 	0.41675 0.14312 0.00629 -0.02800
C 	C 	0.45196 0.19568 0.98870 -0.06000
C 	C 	0.42034 0.21740 0.97012 -0.02900
C 	C 	0.15960 0.10768 0.97684 -0.05900
C 	C 	0.12547 0.05704 0.99595 0.00600
C 	C 	0.15657 0.03389 0.01325 -0.05700
H 	H 	0.23560 0.20369 0.94217 0.04100
H 	H 	0.34961 0.25132 0.93890 0.03800
H 	H 	0.22612 0.99774 0.04270 0.03900
H 	H 	0.33993 0.04512 0.03927 0.04000
H 	H 	0.44081 0.12589 0.02035 0.05000
H 	H 	0.44702 0.25702 0.95582 0.04400
H 	H 	0.13545 0.12522 0.96327 0.05000
H 	H 	0.13044 0.99535 0.02839 0.04900
