data_crystal

_cell_length_a 26.16763
_cell_length_b 26.48965
_cell_length_c 35.04597
_cell_angle_alpha 95.50090
_cell_angle_beta  95.49851
_cell_angle_gamma 125.83799

_symmetry_space_group_name_	'P 1'
_symmetry_space_group_name_H-M	'P 1'

loop_
_symmetry_equiv_pos_as_xyz
  x,y,z

loop_
_atom_site_label
_atom_site_type_symbol
_atom_site_fract_x
_atom_site_fract_y
_atom_site_fract_z
_atom_site_charge
C 	C 	0.95948 0.03036 0.99526 0.11500
N 	N 	0.02401 0.06662 0.99704 -0.14000
C 	C 	0.05425 0.03899 0.99535 0.12200
N 	N 	0.01998 0.97518 0.99198 -0.13700
C 	C 	0.95565 0.93900 0.99050 0.11800
N 	N 	0.92548 0.96664 0.99241 -0.14200
C 	C 	0.94063 0.99590 0.46225 0.12300
N 	N 	0.90897 0.93289 0.46210 -0.14400
C 	C 	0.94168 0.90761 0.46259 0.11800
N 	N 	0.00611 0.94576 0.46430 -0.13700
C 	C 	0.03795 0.00886 0.46561 0.12500
N 	N 	0.00511 0.03377 0.46402 -0.14100
Cu	Cu	0.62865 0.24204 0.00021 0.92700
Cu	Cu	0.67322 0.23957 0.91597 0.87100
Cu	Cu	0.67311 0.34592 0.95176 0.89700
Cu	Cu	0.64356 0.36626 0.02966 0.89300
C 	C 	0.65175 0.28806 0.08237 0.30700
O 	O 	0.53783 0.21322 0.00126 -0.36500
C 	C 	0.64789 0.30402 0.86576 0.30900
O 	O 	0.68843 0.34122 0.00536 -0.64200
O 	O 	0.62087 0.25148 0.94506 -0.64100
O 	O 	0.65924 0.18866 0.99536 -0.36800
O 	O 	0.73137 0.24971 0.95821 -0.44200
O 	O 	0.62785 0.31865 0.07350 -0.38900
O 	O 	0.72819 0.43760 0.96189 -0.38600
C 	C 	0.72536 0.47423 0.98860 0.30600
C 	C 	0.51775 0.24459 0.98771 0.29600
O 	O 	0.55978 0.30348 0.98390 -0.39600
O 	O 	0.68708 0.45115 0.01434 -0.40000
O 	O 	0.65087 0.24919 0.05518 -0.35200
C 	C 	0.71102 0.20762 0.98096 0.29900
O 	O 	0.67156 0.35093 0.89577 -0.38900
O 	O 	0.63605 0.24956 0.87055 -0.40800
H 	H 	0.73428 0.36504 0.01738 0.16300
H 	H 	0.57649 0.22926 0.93068 0.17200
Cu	Cu	0.73850 0.33281 0.45027 0.92800
Cu	Cu	0.74894 0.29531 0.53593 0.87100
Cu	Cu	0.64027 0.29690 0.50344 0.89800
Cu	Cu	0.61404 0.32312 0.42500 0.89400
C 	C 	0.68446 0.30643 0.36864 0.31000
O 	O 	0.77310 0.42393 0.44841 -0.36200
C 	C 	0.69054 0.32489 0.58873 0.30700
O 	O 	0.63907 0.27838 0.44900 -0.64100
O 	O 	0.73510 0.34536 0.50633 -0.64100
O 	O 	0.78810 0.29734 0.45291 -0.37200
O 	O 	0.73052 0.23268 0.49423 -0.44400
O 	O 	0.65493 0.33130 0.37835 -0.39200
O 	O 	0.54768 0.24543 0.49664 -0.37900
C 	C 	0.50990 0.24735 0.46993 0.30100
C 	C 	0.74277 0.44689 0.45960 0.29300
O 	O 	0.68492 0.40869 0.46708 -0.39400
O 	O 	0.53324 0.28792 0.44579 -0.39700
O 	O 	0.72508 0.30739 0.39489 -0.35900
C 	C 	0.76921 0.24785 0.46922 0.29800
O 	O 	0.64076 0.30113 0.56027 -0.37400
O 	O 	0.74486 0.33723 0.58141 -0.42400
H 	H 	0.61287 0.23256 0.43776 0.16100
H 	H 	0.75959 0.39021 0.51943 0.17300
C 	C 	0.63487 0.34852 0.68035 -0.11600
C 	C 	0.66239 0.33095 0.70719 0.00400
C 	C 	0.70086 0.31365 0.69547 0.12000
C 	C 	0.71038 0.31252 0.65692 -0.03700
C 	C 	0.68229 0.32927 0.62975 -0.12500
C 	C 	0.64514 0.34832 0.64179 0.19100
C 	C 	0.65044 0.32982 0.74750 0.00200
O 	O 	0.72731 0.29558 0.72137 -0.27900
H 	H 	0.73875 0.29749 0.64796 0.04500
O 	O 	0.61837 0.36612 0.61591 -0.28700
H 	H 	0.60559 0.36237 0.68936 0.07000
C 	C 	0.69633 0.38097 0.77776 0.11600
C 	C 	0.69280 0.37389 0.81672 -0.03700
C 	C 	0.64336 0.31599 0.82573 -0.12500
C 	C 	0.59391 0.26716 0.79546 0.19000
C 	C 	0.59793 0.27406 0.75650 -0.11300
O 	O 	0.74710 0.43633 0.76928 -0.28100
H 	H 	0.73038 0.41227 0.83981 0.05800
O 	O 	0.54307 0.21172 0.80383 -0.29100
H 	H 	0.56165 0.23501 0.73326 0.07400
H 	H 	0.65095 0.41251 0.61827 0.14200
H 	H 	0.73239 0.46318 0.76734 0.14200
H 	H 	0.51019 0.21865 0.80689 0.14300
H 	H 	0.77006 0.33510 0.73373 0.14800
C 	C 	0.73926 0.31089 0.27217 -0.11100
C 	C 	0.68101 0.28034 0.24593 0.00300
C 	C 	0.62335 0.25216 0.26017 0.11400
C 	C 	0.62454 0.25682 0.30041 -0.03600
C 	C 	0.68314 0.29090 0.32681 -0.12400
C 	C 	0.74065 0.31653 0.31249 0.19200
C 	C 	0.68109 0.28365 0.20406 0.00200
O 	O 	0.56585 0.22081 0.23481 -0.27900
H 	H 	0.58002 0.23604 0.31115 0.04400
O 	O 	0.79854 0.35083 0.33777 -0.28700
H 	H 	0.78379 0.33239 0.26135 0.07700
C 	C 	0.70429 0.34126 0.19165 0.11400
C 	C 	0.69771 0.34280 0.15176 -0.03700
C 	C 	0.66636 0.28681 0.12390 -0.12100
C 	C 	0.64429 0.22925 0.13635 0.19200
C 	C 	0.65275 0.22819 0.17629 -0.11100
O 	O 	0.73307 0.39608 0.21849 -0.27700
H 	H 	0.71546 0.38735 0.14248 0.04500
O 	O 	0.61360 0.17392 0.10967 -0.28100
H 	H 	0.63511 0.18375 0.18570 0.07700
H 	H 	0.80699 0.31978 0.34243 0.15500
H 	H 	0.69773 0.39826 0.22370 0.14100
H 	H 	0.56738 0.15545 0.10604 0.15200
H 	H 	0.55939 0.25353 0.23121 0.14100
C 	C 	0.77183 0.51481 0.46146 -0.11600
C 	C 	0.80224 0.54684 0.43129 0.12900
C 	C 	0.83194 0.61207 0.43530 -0.10100
C 	C 	0.82507 0.64409 0.46622 0.00500
C 	C 	0.79039 0.61097 0.49481 0.05500
C 	C 	0.76627 0.54728 0.49292 -0.02400
N 	N 	0.79976 0.51479 0.39755 -0.20400
H 	H 	0.85763 0.63730 0.41312 0.05800
C 	C 	0.85273 0.71180 0.46748 -0.01000
N 	N 	0.77983 0.63980 0.52393 -0.19200
H 	H 	0.74197 0.52255 0.51563 0.03900
C 	C 	0.82421 0.72754 0.43990 -0.08400
C 	C 	0.85335 0.79109 0.43688 0.09800
C 	C 	0.90862 0.84000 0.46464 -0.04800
C 	C 	0.93524 0.82414 0.49347 -0.05600
C 	C 	0.90941 0.76062 0.49423 0.07100
H 	H 	0.78100 0.69002 0.41932 0.05300
N 	N 	0.82993 0.80447 0.40628 -0.19900
H 	H 	0.97752 0.86155 0.51472 0.04700
N 	N 	0.93962 0.74696 0.52035 -0.19500
H 	H 	0.78703 0.76834 0.38738 0.08400
H 	H 	0.85592 0.84963 0.39931 0.09300
H 	H 	0.98071 0.78336 0.54045 0.08100
H 	H 	0.92369 0.70052 0.52050 0.08700
H 	H 	0.75544 0.61535 0.54537 0.08100
H 	H 	0.79427 0.68602 0.52513 0.08700
H 	H 	0.76694 0.46556 0.38975 0.10700
H 	H 	0.82672 0.53949 0.37699 0.09100
C 	C 	0.90483 0.02264 0.45825 -0.05200
C 	C 	0.87979 0.03267 0.48979 0.09800
C 	C 	0.85290 0.06531 0.48635 -0.08500
C 	C 	0.85178 0.08909 0.45246 -0.01000
C 	C 	0.87464 0.07704 0.42043 0.07000
C 	C 	0.90082 0.04373 0.42365 -0.05400
N 	N 	0.88268 0.01248 0.52366 -0.20100
H 	H 	0.83457 0.07398 0.51063 0.05100
C 	C 	0.83130 0.13072 0.45214 0.00400
N 	N 	0.87175 0.09735 0.38662 -0.19500
H 	H 	0.91939 0.03536 0.39941 0.04500
C 	C 	0.87671 0.19571 0.46720 -0.09900
C 	C 	0.85794 0.23555 0.47203 0.12100
C 	C 	0.79253 0.20995 0.46022 -0.11700
C 	C 	0.74769 0.14550 0.44336 -0.02000
C 	C 	0.76632 0.10546 0.43933 0.05400
H 	H 	0.92657 0.21496 0.47652 0.05500
N 	N 	0.90252 0.29763 0.48908 -0.20500
H 	H 	0.69776 0.12611 0.43412 0.03700
N 	N 	0.72170 0.04299 0.42324 -0.19200
H 	H 	0.95071 0.31605 0.49718 0.08000
H 	H 	0.88998 0.32794 0.49519 0.07700
H 	H 	0.67369 0.02462 0.41431 0.08100
H 	H 	0.73418 0.01226 0.41893 0.08600
H 	H 	0.88960 0.08902 0.36333 0.08100
H 	H 	0.85100 0.12069 0.38285 0.08800
H 	H 	0.90359 0.98935 0.52763 0.09200
H 	H 	0.86404 0.02017 0.54672 0.08100
C 	C 	0.44173 0.21292 0.47229 -0.10900
C 	C 	0.39768 0.14639 0.45964 0.12400
C 	C 	0.33232 0.11588 0.46025 -0.09800
C 	C 	0.31037 0.15065 0.47293 0.00400
C 	C 	0.35464 0.21695 0.48647 0.05800
C 	C 	0.41995 0.24743 0.48587 -0.01900
N 	N 	0.41756 0.11173 0.44640 -0.20400
H 	H 	0.29825 0.06501 0.45027 0.05700
C 	C 	0.24077 0.11712 0.47143 -0.00900
N 	N 	0.33479 0.25157 0.49984 -0.19100
H 	H 	0.45396 0.29833 0.49579 0.04400
C 	C 	0.21426 0.09060 0.50344 -0.08500
C 	C 	0.14841 0.05817 0.50307 0.10000
C 	C 	0.10813 0.05025 0.46937 -0.04900
C 	C 	0.13485 0.07812 0.43774 -0.05400
C 	C 	0.20091 0.11145 0.43834 0.07100
H 	H 	0.24516 0.09591 0.52894 0.05500
N 	N 	0.12441 0.03592 0.53535 -0.19900
H 	H 	0.10390 0.07251 0.41215 0.04900
N 	N 	0.22559 0.13750 0.40707 -0.19400
H 	H 	0.15410 0.04010 0.55960 0.08400
H 	H 	0.07689 0.01648 0.53732 0.09100
H 	H 	0.19571 0.13299 0.38280 0.08300
H 	H 	0.27443 0.16246 0.40647 0.08800
H 	H 	0.36783 0.30058 0.50945 0.08400
H 	H 	0.28669 0.23038 0.50111 0.08900
H 	H 	0.46563 0.13292 0.44504 0.08100
H 	H 	0.38459 0.06263 0.43712 0.08200
C 	C 	0.75985 0.54171 0.98671 -0.11200
C 	C 	0.82759 0.58483 0.99718 0.12700
C 	C 	0.85837 0.64924 0.99604 -0.09600
C 	C 	0.82268 0.67123 0.98526 0.00300
C 	C 	0.75508 0.62789 0.97403 0.05700
C 	C 	0.72434 0.56353 0.97510 -0.02000
N 	N 	0.86319 0.56507 0.00904 -0.20500
H 	H 	0.91019 0.68260 0.00434 0.05400
C 	C 	0.85653 0.74001 0.98694 -0.00700
N 	N 	0.71948 0.64772 0.96234 -0.19200
H 	H 	0.67250 0.53024 0.96686 0.04000
C 	C 	0.88078 0.76600 0.95429 -0.08500
C 	C 	0.91110 0.83060 0.95423 0.09800
C 	C 	0.91900 0.87014 0.98804 -0.04600
C 	C 	0.89443 0.84409 0.02060 -0.05700
C 	C 	0.86346 0.77936 0.02051 0.06900
H 	H 	0.87492 0.73555 0.92856 0.05400
N 	N 	0.93116 0.85397 0.92142 -0.19900
H 	H 	0.90045 0.87456 0.04638 0.04700
N 	N 	0.84080 0.75541 0.05272 -0.19400
H 	H 	0.92663 0.82476 0.89698 0.08300
H 	H 	0.94951 0.90057 0.91934 0.09000
H 	H 	0.84577 0.78480 0.07722 0.08200
H 	H 	0.81846 0.70774 0.05393 0.08700
H 	H 	0.66952 0.61543 0.95458 0.08300
H 	H 	0.74083 0.69501 0.96043 0.08800
H 	H 	0.84181 0.51799 0.01151 0.08200
H 	H 	0.91320 0.59727 0.01643 0.08100
C 	C 	0.92645 0.06007 0.99697 -0.04400
C 	C 	0.92228 0.08970 0.96648 0.09400
C 	C 	0.88974 0.11684 0.96910 -0.08000
C 	C 	0.85932 0.11279 0.00072 -0.01300
C 	C 	0.86361 0.08337 0.03125 0.07200
C 	C 	0.89728 0.05734 0.02905 -0.05900
N 	N 	0.94761 0.09059 0.93416 -0.19900
H 	H 	0.88631 0.13947 0.94581 0.05000
C 	C 	0.81958 0.13579 0.00013 0.00200
N 	N 	0.83590 0.08024 0.06275 -0.19500
H 	H 	0.90067 0.03473 0.05237 0.04700
C 	C 	0.75512 0.09440 0.98135 -0.09500
C 	C 	0.71812 0.11647 0.97539 0.12200
C 	C 	0.74589 0.18096 0.98972 -0.11200
C 	C 	0.80954 0.22164 0.01005 -0.02200
C 	C 	0.84679 0.19972 0.01543 0.05600
H 	H 	0.73434 0.04529 0.97005 0.05600
N 	N 	0.65686 0.07606 0.95490 -0.20400
H 	H 	0.83049 0.27083 0.02125 0.03900
N 	N 	0.90845 0.24019 0.03525 -0.19200
H 	H 	0.63668 0.02841 0.94499 0.08200
H 	H 	0.62909 0.09147 0.94787 0.07800
H 	H 	0.92843 0.28757 0.04591 0.08100
H 	H 	0.93679 0.22494 0.04085 0.08600
H 	H 	0.83876 0.05781 0.08494 0.08200
H 	H 	0.81201 0.10059 0.06583 0.09000
H 	H 	0.96757 0.06655 0.92969 0.08800
H 	H 	0.94570 0.11403 0.91234 0.08100
C 	C 	0.44959 0.21859 0.98442 -0.11100
C 	C 	0.39988 0.15636 0.96399 0.12700
C 	C 	0.33581 0.13056 0.96600 -0.09900
C 	C 	0.32050 0.16686 0.98630 0.00700
C 	C 	0.36993 0.23032 0.00479 0.05400
C 	C 	0.43405 0.25539 0.00386 -0.02200
N 	N 	0.41307 0.12200 0.94150 -0.20200
H 	H 	0.29766 0.08232 0.95130 0.05800
C 	C 	0.25274 0.13710 0.98925 -0.00700
N 	N 	0.35621 0.26732 0.02349 -0.19100
H 	H 	0.47212 0.30335 0.01905 0.03300
C 	C 	0.22988 0.10861 0.02144 -0.08600
C 	C 	0.16602 0.08008 0.02540 0.09800
C 	C 	0.12367 0.07773 0.99566 -0.04700
C 	C 	0.14693 0.10773 0.96399 -0.05400
C 	C 	0.21122 0.13757 0.96047 0.07100
H 	H 	0.26220 0.10947 0.04379 0.05500
N 	N 	0.14610 0.05637 0.05813 -0.19900
H 	H 	0.11450 0.10648 0.94149 0.04700
N 	N 	0.23265 0.16639 0.92947 -0.19400
H 	H 	0.17704 0.05631 0.07930 0.08500
H 	H 	0.10082 0.04017 0.06365 0.09200
H 	H 	0.20150 0.16617 0.90829 0.08300
H 	H 	0.28029 0.18962 0.92615 0.08800
H 	H 	0.39314 0.31386 0.03748 0.08100
H 	H 	0.30899 0.25078 0.02388 0.08700
H 	H 	0.45907 0.14219 0.93576 0.08200
H 	H 	0.37632 0.07520 0.92784 0.08400
