data_crystal

_cell_length_a 18.33955
_cell_length_b 18.77487
_cell_length_c 22.07417
_cell_angle_alpha 95.46162
_cell_angle_beta  95.46399
_cell_angle_gamma 126.33580

_symmetry_space_group_name_	'P 1'
_symmetry_space_group_name_H-M	'P 1'

loop_
_symmetry_equiv_pos_as_xyz
  x,y,z

loop_
_atom_site_label
_atom_site_type_symbol
_atom_site_fract_x
_atom_site_fract_y
_atom_site_fract_z
_atom_site_charge
N 	N 	0.05918 0.06300 0.99070 -0.14200
C 	C 	0.09596 0.01926 0.97867 0.11100
C 	C 	0.02602 0.03274 0.44763 0.11400
Cu	Cu	0.65376 0.20861 0.02948 0.92600
Cu	Cu	0.76406 0.23696 0.91570 0.86400
Cu	Cu	0.68278 0.32354 0.93186 0.89000
Cu	Cu	0.63095 0.36222 0.04789 0.89500
C 	C 	0.65569 0.28201 0.15045 0.31800
O 	O 	0.51533 0.14518 0.01772 -0.36600
C 	C 	0.68386 0.25412 0.80573 0.31300
O 	O 	0.71422 0.34332 0.02170 -0.63900
O 	O 	0.65000 0.20353 0.93935 -0.64100
O 	O 	0.71955 0.15489 0.04205 -0.36700
O 	O 	0.60658 0.30343 0.12183 -0.39700
O 	O 	0.72267 0.44422 0.92784 -0.38600
C 	C 	0.73671 0.50244 0.97491 0.30000
C 	C 	0.47598 0.17397 0.98595 0.29100
O 	O 	0.52724 0.25502 0.97320 -0.40700
O 	O 	0.68488 0.47614 0.01756 -0.40000
O 	O 	0.67830 0.23679 0.11876 -0.37200
O 	O 	0.66728 0.30311 0.84034 -0.38600
O 	O 	0.71079 0.21027 0.83061 -0.43300
H 	H 	0.59232 0.15237 0.91141 0.17500
Cu	Cu	0.72771 0.35621 0.43312 0.92400
Cu	Cu	0.71387 0.25850 0.55164 0.86700
Cu	Cu	0.60087 0.31793 0.52743 0.89300
Cu	Cu	0.56967 0.37861 0.41334 0.89400
C 	C 	0.65031 0.35141 0.31127 0.31600
C 	C 	0.65849 0.30707 0.65351 0.31200
O 	O 	0.58867 0.29640 0.43825 -0.63500
O 	O 	0.72954 0.36126 0.52397 -0.63600
O 	O 	0.67292 0.18418 0.47357 -0.44700
O 	O 	0.62778 0.39946 0.33883 -0.40100
O 	O 	0.47240 0.26663 0.52560 -0.38400
C 	C 	0.42037 0.26623 0.47977 0.29500
C 	C 	0.76279 0.53179 0.47109 0.28600
O 	O 	0.68159 0.48133 0.48634 -0.40000
O 	O 	0.45605 0.33097 0.44726 -0.39700
O 	O 	0.70038 0.33331 0.34346 -0.36800
C 	C 	0.73351 0.20542 0.43814 0.29600
O 	O 	0.61464 0.32931 0.61865 -0.38700
O 	O 	0.72365 0.30548 0.63470 -0.42700
H 	H 	0.54143 0.23284 0.41746 0.15800
C 	C 	0.67112 0.24621 0.74392 -0.12300
C 	C 	0.64244 0.29385 0.71100 -0.12400
H 	H 	0.68415 0.20463 0.71681 0.06300
H 	H 	0.59863 0.30762 0.73018 0.08300
C 	C 	0.63579 0.33568 0.24915 -0.12400
C 	C 	0.66896 0.29265 0.21268 -0.12200
H 	H 	0.59899 0.35642 0.22457 0.07300
H 	H 	0.70407 0.26962 0.23631 0.08400
H 	H 	0.73348 0.61543 0.58430 0.07500
C 	C 	0.75394 0.13912 0.31856 -0.20600
H 	H 	0.75575 0.10084 0.27790 0.07200
H 	H 	0.68306 0.11938 0.31364 0.07700
C 	C 	0.27727 0.21252 0.51925 -0.02100
C 	C 	0.31987 0.20356 0.47286 -0.10200
C 	C 	0.26574 0.13819 0.41820 0.08200
C 	C 	0.16944 0.08432 0.41005 -0.06800
C 	C 	0.12676 0.09390 0.45604 -0.02800
C 	C 	0.18082 0.15765 0.51147 0.04500
H 	H 	0.31922 0.26305 0.56104 0.04200
H 	H 	0.12750 0.03440 0.36797 0.04600
C 	C 	0.31046 0.12591 0.36848 -0.19200
H 	H 	0.10067 0.19657 0.54553 0.06800
H 	H 	0.36058 0.11562 0.38887 0.05300
H 	H 	0.34684 0.18636 0.34668 0.05600
H 	H 	0.25893 0.06639 0.33156 0.06100
H 	H 	0.70741 0.58215 0.89193 0.04300
C 	C 	0.71232 0.03006 0.92690 -0.19700
C 	C 	0.04460 0.16363 0.10299 -0.17700
H 	H 	0.72507 0.08105 0.89879 0.02300
H 	H 	0.65619 0.01305 0.95236 0.06700
H 	H 	0.10724 0.20248 0.08224 0.06600
H 	H 	0.03794 0.10581 0.11857 0.06500
H 	H 	0.05359 0.20804 0.14476 0.06100
C 	C 	0.34350 0.12011 0.03831 -0.03000
C 	C 	0.37715 0.12938 0.98288 -0.10000
C 	C 	0.31941 0.10839 0.92631 0.08800
C 	C 	0.22934 0.08010 0.92637 -0.07200
C 	C 	0.19550 0.06994 0.98175 -0.02400
C 	C 	0.25354 0.09180 0.03832 0.04000
H 	H 	0.38840 0.13749 0.08177 0.04400
H 	H 	0.18435 0.06275 0.88297 0.04700
C 	C 	0.35372 0.11688 0.86597 -0.19800
H 	H 	0.39085 0.08706 0.86319 0.06500
H 	H 	0.40101 0.18900 0.86250 0.07400
H 	H 	0.29590 0.08105 0.82550 0.06500
C 	C 	0.13606 0.16832 0.56185 -0.17900
H 	H 	0.18749 0.21435 0.60455 0.06100
C 	C 	0.21883 0.08253 0.09854 -0.17700
H 	H 	0.27496 0.11029 0.13916 0.05900
H 	H 	0.18958 0.11981 0.10387 0.06400
H 	H 	0.08509 0.10212 0.57443 0.06600
H 	H 	0.16466 0.01035 0.09907 0.06500
H 	H 	0.77773 0.42029 0.55113 0.17300
O 	O 	0.79488 0.49276 0.44350 -0.35800
O 	O 	0.77610 0.28411 0.42086 -0.37000
C 	C 	0.77357 0.15614 0.43572 -0.12100
C 	C 	0.77937 0.12020 0.37871 0.09800
H 	H 	0.73622 0.69861 0.83969 0.06300
H 	H 	0.76222 0.78804 0.89829 0.06900
C 	C 	0.79864 0.19006 0.02404 0.30000
H 	H 	0.78018 0.39074 0.03988 0.15600
C 	C 	0.80173 0.62578 0.46607 -0.10100
C 	C 	0.80718 0.66321 0.58093 -0.19700
H 	H 	0.80046 0.60346 0.36821 0.04700
H 	H 	0.80325 0.21199 0.31762 0.08500
C 	C 	0.76913 0.62971 0.92679 -0.02000
C 	C 	0.81120 0.65009 0.40750 -0.02900
C 	C 	0.81456 0.68629 0.51708 0.08600
C 	C 	0.79665 0.13652 0.49099 -0.01800
H 	H 	0.79204 0.16389 0.53473 -0.00400
C 	C 	0.79935 0.06631 0.97185 0.08400
H 	H 	0.81176 0.69739 0.29871 0.06300
H 	H 	0.80357 0.78551 0.32439 0.07000
C 	C 	0.79041 0.75496 0.87761 -0.17900
O 	O 	0.83079 0.25682 0.99413 -0.44000
C 	C 	0.81031 0.06698 0.37826 -0.07700
H 	H 	0.81837 0.04229 0.33492 0.04900
C 	C 	0.79605 0.59828 0.97227 -0.10000
C 	C 	0.83080 0.73265 0.39875 0.04700
C 	C 	0.82476 0.08131 0.49030 0.03700
C 	C 	0.83633 0.13944 0.02101 -0.11800
C 	C 	0.83363 0.76864 0.50816 -0.07000
C 	C 	0.82032 0.72226 0.92695 0.04500
H 	H 	0.84038 0.72425 0.61733 0.06500
H 	H 	0.84219 0.63230 0.59066 0.06800
C 	C 	0.83350 0.04773 0.43370 -0.02300
H 	H 	0.82972 0.08472 0.58967 0.05400
C 	C 	0.84086 0.75716 0.33537 -0.18200
C 	C 	0.84565 0.02880 0.96351 -0.07500
C 	C 	0.84417 0.79329 0.44977 -0.02900
H 	H 	0.84442 0.81542 0.54736 0.04600
N 	N 	0.83998 0.92050 0.43776 -0.13900
C 	C 	0.84911 0.06157 0.55046 -0.18200
H 	H 	0.84976 0.80371 0.85660 0.06800
N 	N 	0.04242 0.92837 0.97089 -0.13600
C 	C 	0.96922 0.01537 0.99652 0.11200
N 	N 	0.97667 0.06433 0.43829 -0.14200
H 	H 	0.92449 0.09638 0.56140 0.06300
C 	C 	0.90800 0.62668 0.06577 -0.19300
H 	H 	0.91096 0.57326 0.04309 0.05200
H 	H 	0.85939 0.59919 0.09853 0.06100
C 	C 	0.92632 0.06083 0.00480 -0.03100
C 	C 	0.96069 0.13089 0.05598 0.04000
C 	C 	0.91643 0.17105 0.06278 -0.01900
H 	H 	0.94480 0.22746 0.10030 0.03500
C 	C 	0.87640 0.65959 0.01766 0.08100
H 	H 	0.97792 0.68177 0.09277 0.06300
H 	H 	0.91496 0.80783 0.33409 0.07000
C 	C 	0.92638 0.75207 0.01864 -0.07200
C 	C 	0.89835 0.78375 0.97412 -0.02400
H 	H 	0.98704 0.79966 0.05430 0.04800
C 	C 	0.88381 0.00879 0.43377 0.10900
C 	C 	0.88975 0.88856 0.44566 0.11600
C 	C 	0.95284 0.88090 0.97631 0.11600
N 	N 	0.91654 0.92441 0.98983 -0.13900
H 	H 	0.68804 0.96781 0.89469 0.06700
H 	H 	0.81872 0.97425 0.92479 0.05100
H 	H 	0.81189 0.98795 0.54676 0.07200
N 	N 	0.98252 0.94498 0.45083 -0.14000
