data_crystal

_cell_length_a 20.37168
_cell_length_b 21.03680
_cell_length_c 38.09535
_cell_angle_alpha 60.69223
_cell_angle_beta  119.01470
_cell_angle_gamma 133.33091

_symmetry_space_group_name_	'P 1'
_symmetry_space_group_name_H-M	'P 1'

loop_
_symmetry_equiv_pos_as_xyz
  x,y,z

loop_
_atom_site_label
_atom_site_type_symbol
_atom_site_fract_x
_atom_site_fract_y
_atom_site_fract_z
_atom_site_charge
C 	C 	0.27096 0.62845 0.16665 0.19300
N 	N 	0.23144 0.54819 0.16082 -0.09200
C 	C 	0.28621 0.52915 0.16390 0.18100
N 	N 	0.37920 0.58858 0.17359 -0.10100
C 	C 	0.41901 0.66944 0.17770 0.18500
N 	N 	0.36525 0.68871 0.17537 -0.06500
C 	C 	0.31274 0.67771 0.66301 0.18300
N 	N 	0.26922 0.59639 0.65691 -0.09200
C 	C 	0.32103 0.57035 0.66367 0.18500
N 	N 	0.41445 0.62588 0.67545 -0.10000
C 	C 	0.45741 0.71033 0.67632 0.19300
N 	N 	0.40691 0.73393 0.67296 -0.06600
Co	Co	0.00632 0.07751 0.08125 1.21900
Co	Co	0.02113 0.99185 0.03395 1.21400
C 	C 	0.15768 0.98090 0.03367 0.31900
O 	O 	0.03456 0.05792 0.20006 -0.31800
C 	C 	0.02333 0.98114 0.22195 0.27100
O 	O 	0.06414 0.10778 0.03940 -0.38700
C 	C 	0.11884 0.21771 0.12651 0.31300
C 	C 	0.06236 0.77625 0.09462 0.36700
O 	O 	0.02020 0.93559 0.20533 -0.26600
O 	O 	0.06338 0.81710 0.11313 -0.28400
O 	O 	0.03778 0.19328 0.12348 -0.31500
O 	O 	0.12398 0.17124 0.11522 -0.30900
O 	O 	0.08983 0.93289 0.00575 -0.32200
O 	O 	0.14163 0.00508 0.05305 -0.33100
Co	Co	0.05254 0.12996 0.57295 1.21400
Co	Co	0.08546 0.03758 0.53817 1.20300
Co	Co	0.06113 0.86844 0.53646 1.19400
C 	C 	0.24904 0.04064 0.55259 0.30800
O 	O 	0.08072 0.12290 0.68810 -0.33900
C 	C 	0.06614 0.04532 0.71230 0.25400
O 	O 	0.10976 0.15343 0.53271 -0.36800
C 	C 	0.16149 0.27840 0.61244 0.32000
C 	C 	0.09747 0.79037 0.62668 0.32900
O 	O 	0.05537 0.99068 0.69828 -0.30400
O 	O 	0.04748 0.76842 0.59129 -0.33900
O 	O 	0.09940 0.84595 0.63479 -0.31600
O 	O 	0.07955 0.25411 0.60735 -0.32700
O 	O 	0.16904 0.22868 0.60504 -0.31600
O 	O 	0.03858 0.92692 0.55705 -0.72900
O 	O 	0.20218 0.95270 0.55956 -0.33200
O 	O 	0.22025 0.07477 0.55851 -0.34100
C 	C 	0.06938 0.06060 0.80117 0.18500
C 	C 	0.10791 0.08958 0.83746 -0.07200
C 	C 	0.05171 0.03567 0.86612 0.09800
C 	C 	0.05702 0.06324 0.89477 0.01500
N 	N 	0.11916 0.08221 0.77830 -0.15900
C 	C 	0.06171 0.01953 0.75566 0.09800
H 	H 	0.17755 0.15004 0.84311 0.15900
H 	H 	0.12081 0.10534 0.91471 0.10100
H 	H 	0.18088 0.14522 0.77190 0.17700
C 	C 	0.11724 0.06508 0.34239 -0.10300
C 	C 	0.08302 0.00096 0.32351 0.13200
C 	C 	0.03606 0.95767 0.26758 0.12900
C 	C 	0.11247 0.02067 0.29111 -0.07100
N 	N 	0.08614 0.07728 0.39210 -0.16200
H 	H 	0.18864 0.12441 0.34485 0.14900
H 	H 	0.16944 0.08652 0.27901 0.16200
H 	H 	0.15593 0.11897 0.40616 0.19700
C 	C 	0.24791 0.34492 0.67140 0.06800
C 	C 	0.24251 0.35519 0.63102 0.01700
C 	C 	0.28038 0.44253 0.60460 -0.04900
C 	C 	0.29115 0.50784 0.61291 0.05600
C 	C 	0.27929 0.49167 0.65060 0.07400
C 	C 	0.25741 0.40891 0.68035 -0.10100
C 	C 	0.24881 0.39071 0.72221 0.78800
H 	H 	0.23338 0.28237 0.69425 0.08900
H 	H 	0.31529 0.57366 0.59136 0.12200
C 	C 	0.31040 0.46742 0.56783 0.78200
F 	F 	0.20511 0.30017 0.74237 -0.43000
F 	F 	0.19703 0.41594 0.71741 -0.40100
F 	F 	0.33630 0.43941 0.74667 -0.38300
F 	F 	0.25079 0.48001 0.53161 -0.34500
F 	F 	0.31125 0.40137 0.56878 -0.38800
F 	F 	0.39916 0.54688 0.56809 -0.37200
H 	H 	0.49577 0.77240 0.60428 0.13000
C 	C 	0.18262 0.64982 0.67416 0.04400
C 	C 	0.25852 0.70825 0.65602 0.07900
C 	C 	0.29002 0.79952 0.63642 -0.09800
C 	C 	0.25223 0.83148 0.64024 0.07600
C 	C 	0.16721 0.77074 0.65137 0.01100
C 	C 	0.13747 0.68068 0.67260 -0.06700
C 	C 	0.05529 0.61570 0.69193 0.81800
H 	H 	0.15898 0.58054 0.68976 0.13300
H 	H 	0.28290 0.90277 0.62974 0.08900
C 	C 	0.35988 0.86197 0.60979 0.78600
F 	F 	0.06989 0.55855 0.72835 -0.36900
F 	F 	0.04136 0.66099 0.70128 -0.36500
F 	F 	0.35144 0.81477 0.59046 -0.40700
F 	F 	0.44890 0.90652 0.63407 -0.37900
F 	F 	0.34564 0.92548 0.57898 -0.41700
C 	C 	0.24983 0.37861 0.18533 0.04800
C 	C 	0.24619 0.44850 0.15302 0.06900
C 	C 	0.23335 0.45325 0.11187 -0.07500
C 	C 	0.21451 0.38251 0.10397 0.08500
C 	C 	0.20137 0.30544 0.13567 0.03300
C 	C 	0.23585 0.31155 0.17687 -0.08700
C 	C 	0.27709 0.26162 0.20988 0.78500
H 	H 	0.27180 0.38112 0.21714 0.10900
H 	H 	0.20019 0.38289 0.07256 0.13500
C 	C 	0.24048 0.53352 0.07667 0.79400
F 	F 	0.27650 0.24986 0.24880 -0.42200
F 	F 	0.36793 0.31152 0.20827 -0.37200
F 	F 	0.22833 0.17784 0.20400 -0.42200
F 	F 	0.32964 0.61094 0.08324 -0.38700
F 	F 	0.17860 0.54388 0.07464 -0.37600
F 	F 	0.22011 0.52281 0.03877 -0.35900
C 	C 	0.49512 0.85205 0.11655 0.78400
F 	F 	0.41152 0.79226 0.09412 -0.37300
C 	C 	0.16562 0.66609 0.10953 0.04400
C 	C 	0.21320 0.66070 0.15095 0.09000
C 	C 	0.21430 0.69625 0.17501 -0.08500
C 	C 	0.16965 0.73948 0.15583 0.10000
C 	C 	0.12815 0.75082 0.11304 0.03500
C 	C 	0.13566 0.72129 0.08920 -0.05500
C 	C 	0.11745 0.75192 0.04229 0.78500
H 	H 	0.16068 0.63487 0.09184 0.15800
H 	H 	0.16633 0.76304 0.17421 0.14000
C 	C 	0.26278 0.68886 0.22061 0.79100
F 	F 	0.16510 0.74776 0.02802 -0.36200
F 	F 	0.14817 0.84007 0.02905 -0.44400
F 	F 	0.02383 0.69722 0.02479 -0.41100
F 	F 	0.35760 0.75266 0.22478 -0.37900
F 	F 	0.24315 0.60384 0.23978 -0.39100
F 	F 	0.23425 0.70313 0.24078 -0.37000
C 	C 	0.03321 0.38524 0.51879 0.83200
F 	F 	0.04999 0.46431 0.48915 -0.36100
F 	F 	0.06287 0.35291 0.51017 -0.38300
F 	F 	0.08366 0.40439 0.55717 -0.42200
C 	C 	0.41101 0.10014 0.59229 0.09100
C 	C 	0.34761 0.09592 0.55369 0.02000
C 	C 	0.37565 0.12878 0.51747 -0.05300
C 	C 	0.46361 0.15705 0.52107 0.05500
C 	C 	0.52889 0.16723 0.55907 0.09400
C 	C 	0.50048 0.13199 0.59553 -0.08900
H 	H 	0.38939 0.07558 0.61994 0.09200
H 	H 	0.48467 0.17980 0.49356 0.15600
C 	C 	0.31179 0.13279 0.47505 0.77200
F 	F 	0.51847 0.06534 0.66839 -0.38300
F 	F 	0.26312 0.15828 0.47349 -0.44200
F 	F 	0.25048 0.04895 0.46678 -0.42400
F 	F 	0.36131 0.19510 0.44454 -0.39000
F 	F 	0.01212 0.41335 0.02206 -0.32800
F 	F 	0.02501 0.30515 0.03688 -0.39000
F 	F 	0.01596 0.32605 0.08684 -0.40100
C 	C 	0.41288 0.07532 0.06792 0.04800
C 	C 	0.43589 0.11746 0.02968 0.07400
C 	C 	0.36566 0.10894 0.99269 -0.07400
C 	C 	0.27476 0.06103 0.99518 0.10600
C 	C 	0.25476 0.02966 0.03325 0.00900
C 	C 	0.32638 0.04091 0.07015 -0.06200
C 	C 	0.31648 0.03013 0.11013 0.78100
H 	H 	0.46672 0.07966 0.09598 0.12300
H 	H 	0.21947 0.04963 0.96730 0.09300
C 	C 	0.38558 0.14464 0.95081 0.79200
F 	F 	0.39425 0.04400 0.14205 -0.38800
F 	F 	0.24176 0.94446 0.12262 -0.42700
F 	F 	0.30477 0.09241 0.10424 -0.40700
F 	F 	0.40018 0.09229 0.94807 -0.34200
F 	F 	0.46300 0.23340 0.94556 -0.35200
F 	F 	0.31199 0.14144 0.91856 -0.40900
O 	O 	0.08202 0.96205 0.48004 -0.31100
C 	C 	0.54927 0.78058 0.66748 0.08600
C 	C 	0.51876 0.73865 0.17934 0.07800
F 	F 	0.47838 0.87049 0.14034 -0.39900
C 	C 	0.05668 0.04876 0.35896 0.18400
C 	C 	0.03652 0.99753 0.45796 0.28300
F 	F 	0.52805 0.05519 0.98683 -0.35100
O 	O 	0.02701 0.03167 0.47537 -0.30500
F 	F 	0.50962 0.37656 0.97412 -0.38200
C 	C 	0.01599 0.01796 0.41199 0.10500
C 	C 	0.53360 0.19054 0.02890 0.19000
F 	F 	0.54421 0.93206 0.08890 -0.40200
C 	C 	0.54857 0.81150 0.14429 -0.09600
O 	O 	0.00019 0.06650 0.61264 -0.71100
C 	C 	0.55797 0.79931 0.62861 0.04300
O 	O 	0.99398 0.74433 0.06337 -0.36600
O 	O 	0.99632 0.02594 0.96797 -0.34600
F 	F 	0.56930 0.84134 0.55047 -0.37400
F 	F 	0.56624 0.82680 0.73336 -0.37500
C 	C 	0.56666 0.13216 0.63770 0.79300
C 	C 	0.99094 0.92703 0.31889 0.04800
F 	F 	0.97680 0.56465 0.66475 -0.43000
C 	C 	0.96850 0.00060 0.90344 -0.00000
C 	C 	0.95432 0.96916 0.94557 0.28800
Co	Co	0.95328 0.82063 0.01191 1.18100
C 	C 	0.98473 0.32691 0.04543 0.68800
O 	O 	0.95986 0.87806 0.04635 -0.76300
C 	C 	0.67396 0.25036 0.01902 0.18600
N 	N 	0.71318 0.32982 0.02549 -0.10600
C 	C 	0.66271 0.33810 0.03459 0.17700
N 	N 	0.57367 0.26810 0.03664 -0.09600
N 	N 	0.58439 0.18030 0.02158 -0.07400
C 	C 	0.74477 0.30197 0.52830 0.18400
N 	N 	0.78345 0.38476 0.53063 -0.09400
C 	C 	0.74392 0.39278 0.54717 0.17700
N 	N 	0.66785 0.31846 0.56202 -0.09500
C 	C 	0.62692 0.23688 0.55822 0.19000
N 	N 	0.66714 0.22818 0.54265 -0.08300
Co	Co	0.95146 0.82304 0.09607 1.19000
Co	Co	0.93881 0.90834 0.14588 1.19000
C 	C 	0.80497 0.66390 0.05537 0.29300
Co	Co	0.93638 0.06244 0.14750 1.16400
O 	O 	0.95486 0.00930 0.12131 -0.77000
O 	O 	0.94369 0.80977 0.15108 -0.38500
O 	O 	0.94531 0.93837 0.08106 -0.56100
C 	C 	0.77622 0.86677 0.15835 0.30500
O 	O 	0.83746 0.93460 0.17579 -0.37900
O 	O 	0.80278 0.83768 0.14754 -0.30900
O 	O 	0.89957 0.88314 0.96040 -0.34700
C 	C 	0.87145 0.12296 0.05765 0.29500
O 	O 	0.84241 0.06489 0.09184 -0.36700
O 	O 	0.92430 0.12622 0.04474 -0.32800
O 	O 	0.82043 0.71917 0.01904 -0.34200
O 	O 	0.83241 0.69433 0.08682 -0.28500
Co	Co	0.99620 0.86732 0.59947 1.18700
Co	Co	0.97650 0.96284 0.63893 1.17700
C 	C 	0.86876 0.73158 0.54510 0.29100
Co	Co	0.98191 0.12581 0.63495 1.16200
O 	O 	0.96132 0.85056 0.64673 -0.39200
O 	O 	0.99927 0.98994 0.57880 -0.57500
C 	C 	0.81846 0.93240 0.64909 0.32100
O 	O 	0.88279 0.00242 0.66505 -0.39500
O 	O 	0.84083 0.90335 0.63582 -0.31200
C 	C 	0.91435 0.17480 0.54441 0.28600
O 	O 	0.88666 0.12196 0.57925 -0.32700
O 	O 	0.96654 0.17378 0.53323 -0.30400
O 	O 	0.91931 0.79263 0.51732 -0.38100
O 	O 	0.87814 0.75411 0.57544 -0.27900
C 	C 	0.96167 0.96117 0.85770 0.06000
C 	C 	0.92477 0.93047 0.82251 -0.02600
C 	C 	0.98117 0.98289 0.79449 -0.00600
N 	N 	0.91056 0.94206 0.87874 -0.13200
C 	C 	0.97662 0.95393 0.76707 -0.06600
H 	H 	0.85596 0.86893 0.81735 0.12700
H 	H 	0.91440 0.90116 0.75169 0.08600
H 	H 	0.84545 0.88137 0.88263 0.15400
C 	C 	0.93080 0.90939 0.33626 -0.03500
C 	C 	0.96605 0.97200 0.35641 -0.01500
N 	N 	0.96205 0.90128 0.28480 -0.16400
C 	C 	0.93972 0.95091 0.39039 -0.06200
H 	H 	0.85941 0.85006 0.33378 0.10400
H 	H 	0.88801 0.88315 0.40470 0.09200
H 	H 	0.89319 0.86893 0.26784 0.15400
C 	C 	0.62895 0.81592 0.69934 -0.10100
C 	C 	0.71561 0.85995 0.69344 0.08300
C 	C 	0.72447 0.87497 0.65521 -0.00400
C 	C 	0.64510 0.84687 0.62189 -0.05500
C 	C 	0.65202 0.86309 0.57991 0.77800
H 	H 	0.77683 0.88444 0.71828 0.07500
C 	C 	0.62119 0.80327 0.74030 0.79100
F 	F 	0.67352 0.81035 0.58327 -0.39300
F 	F 	0.71984 0.95284 0.56577 -0.42600
F 	F 	0.58190 0.71401 0.76214 -0.38700
F 	F 	0.70706 0.85659 0.76431 -0.42500
C 	C 	0.57739 0.71236 0.20757 0.03200
C 	C 	0.62778 0.84515 0.13480 0.07000
C 	C 	0.67983 0.81058 0.16078 0.00600
C 	C 	0.65060 0.73917 0.19607 -0.07200
C 	C 	0.69048 0.68548 0.21856 0.78100
H 	H 	0.55734 0.66068 0.23575 0.12000
H 	H 	0.65127 0.90069 0.10801 0.09000
F 	F 	0.64640 0.61257 0.24954 -0.38600
F 	F 	0.78386 0.73952 0.23634 -0.43500
F 	F 	0.67949 0.65308 0.19067 -0.38800
C 	C 	0.88648 0.34656 0.51951 0.06500
C 	C 	0.78939 0.29136 0.51205 0.06500
C 	C 	0.73753 0.21673 0.49559 -0.08400
C 	C 	0.78236 0.18328 0.49980 0.06900
C 	C 	0.87866 0.22927 0.51581 0.04000
C 	C 	0.93110 0.31868 0.51824 -0.13800
H 	H 	0.92744 0.40963 0.52743 0.09500
H 	H 	0.74158 0.11812 0.49394 0.13000
C 	C 	0.63602 0.17331 0.47333 0.78600
F 	F 	0.61469 0.23411 0.45592 -0.38200
F 	F 	0.58118 0.10022 0.50085 -0.38700
F 	F 	0.61567 0.14345 0.44171 -0.37100
C 	C 	0.77957 0.61649 0.50693 0.06900
C 	C 	0.80759 0.63567 0.54431 0.01200
C 	C 	0.80144 0.56834 0.58148 -0.06400
C 	C 	0.79738 0.49815 0.58239 0.03900
C 	C 	0.77658 0.48196 0.54538 0.06400
C 	C 	0.76290 0.53945 0.50696 -0.10400
C 	C 	0.73324 0.52045 0.46609 0.78700
H 	H 	0.77711 0.66497 0.47798 0.09800
H 	H 	0.80266 0.45143 0.61164 0.13800
C 	C 	0.78803 0.56491 0.61837 0.78600
F 	F 	0.71569 0.57959 0.43260 -0.40100
F 	F 	0.65282 0.43394 0.46489 -0.38900
F 	F 	0.80303 0.52952 0.46172 -0.40600
F 	F 	0.73046 0.58986 0.60510 -0.38300
F 	F 	0.87265 0.62248 0.64121 -0.39400
F 	F 	0.74727 0.47864 0.64394 -0.36800
F 	F 	0.62099 0.21481 0.64611 -0.39300
F 	F 	0.62350 0.11652 0.63872 -0.38500
C 	C 	0.82796 0.28870 0.02977 0.04000
C 	C 	0.73162 0.23717 0.01359 0.05400
C 	C 	0.69062 0.16560 0.99745 -0.06200
C 	C 	0.73971 0.13076 0.00936 0.05700
C 	C 	0.83336 0.17590 0.03053 0.00900
C 	C 	0.88020 0.26232 0.03503 -0.07200
H 	H 	0.86239 0.34853 0.03885 0.10200
H 	H 	0.70428 0.06734 0.00322 0.10200
C 	C 	0.59805 0.12912 0.96630 0.78400
F 	F 	0.58206 0.19433 0.94319 -0.35200
F 	F 	0.59654 0.10225 0.93906 -0.37400
C 	C 	0.76176 0.44719 0.07774 0.04100
C 	C 	0.70176 0.42436 0.03978 0.06700
C 	C 	0.66132 0.47097 0.01182 -0.11100
C 	C 	0.67724 0.53491 0.02372 0.07200
C 	C 	0.74649 0.56599 0.05883 0.02300
C 	C 	0.77948 0.51373 0.08870 -0.08100
C 	C 	0.82730 0.52395 0.13279 0.78500
H 	H 	0.79041 0.40967 0.09965 0.10100
H 	H 	0.64387 0.56847 0.00309 0.10700
C 	C 	0.59879 0.45088 0.96982 0.80000
F 	F 	0.82327 0.44785 0.15981 -0.39900
F 	F 	0.78445 0.53628 0.14559 -0.38900
F 	F 	0.91934 0.59705 0.13520 -0.44700
F 	F 	0.63082 0.43397 0.95294 -0.37300
F 	F 	0.59614 0.52327 0.94226 -0.38600
