data_crystal

_cell_length_a 20.21835
_cell_length_b 21.28557
_cell_length_c 44.63936
_cell_angle_alpha 60.64945
_cell_angle_beta  119.09211
_cell_angle_gamma 133.38565

_symmetry_space_group_name_	'P 1'
_symmetry_space_group_name_H-M	'P 1'

loop_
_symmetry_equiv_pos_as_xyz
  x,y,z

loop_
_atom_site_label
_atom_site_type_symbol
_atom_site_fract_x
_atom_site_fract_y
_atom_site_fract_z
_atom_site_charge
C 	C 	0.29389 0.67924 0.11660 0.14000
N 	N 	0.22274 0.60060 0.10645 -0.13900
C 	C 	0.24357 0.55430 0.10407 0.14400
N 	N 	0.33397 0.58705 0.11129 -0.13900
C 	C 	0.40392 0.66282 0.12250 0.14700
N 	N 	0.38394 0.70763 0.12602 -0.12800
C 	C 	0.29150 0.67390 0.61958 0.14100
N 	N 	0.22137 0.59695 0.60812 -0.13100
C 	C 	0.24356 0.55266 0.60502 0.14000
N 	N 	0.33429 0.58609 0.61255 -0.13500
C 	C 	0.40329 0.66077 0.62453 0.14400
N 	N 	0.38196 0.70353 0.62875 -0.14000
Co	Co	0.03761 0.02377 0.02513 1.16000
Co	Co	0.10782 0.92708 0.02300 1.18300
C 	C 	0.21777 0.12237 0.01029 0.32200
O 	O 	0.02323 0.05843 0.16452 -0.44400
C 	C 	0.04124 0.99987 0.18594 0.35000
O 	O 	0.00593 0.10158 0.01987 -0.47300
C 	C 	0.03538 0.20310 0.09176 0.33200
C 	C 	0.21397 0.91209 0.09617 0.31100
O 	O 	0.04734 0.95876 0.17339 -0.37500
O 	O 	0.22387 0.96508 0.06446 -0.37400
O 	O 	0.16468 0.90121 0.11215 -0.36300
O 	O 	0.06171 0.17639 0.08105 -0.40500
O 	O 	0.05016 0.93978 0.04628 -0.72400
O 	O 	0.16910 0.05930 0.99434 -0.44300
O 	O 	0.17855 0.11884 0.02799 -0.40900
Co	Co	0.03521 0.01815 0.52534 1.14900
Co	Co	0.10656 0.91960 0.52571 1.18300
C 	C 	0.21539 0.11567 0.51089 0.33400
O 	O 	0.02358 0.06630 0.66066 -0.38500
C 	C 	0.04102 0.00824 0.68374 0.14500
O 	O 	0.00289 0.09691 0.51850 -0.47700
C 	C 	0.03219 0.20508 0.58757 0.33000
C 	C 	0.21286 0.90777 0.59891 0.31300
O 	O 	0.04448 0.96158 0.67326 -0.30000
O 	O 	0.22280 0.95936 0.56701 -0.36000
O 	O 	0.16309 0.89802 0.61426 -0.37000
O 	O 	0.05927 0.17711 0.57797 -0.39600
O 	O 	0.04836 0.93441 0.54774 -0.72800
O 	O 	0.16739 0.05103 0.49590 -0.45100
O 	O 	0.17618 0.11270 0.52839 -0.42300
C 	C 	0.03986 0.04920 0.90958 -0.04900
C 	C 	0.05350 0.05373 0.88035 -0.12800
C 	C 	0.03918 0.98565 0.77957 0.10800
C 	C 	0.04544 0.05701 0.77811 -0.11700
C 	C 	0.02928 0.05533 0.80580 -0.08300
C 	C 	0.04489 0.98391 0.74867 -0.01000
C 	C 	0.04631 0.98986 0.72043 0.03500
H 	H 	0.09227 0.10431 0.92215 0.04700
H 	H 	0.11543 0.11282 0.87049 0.05500
H 	H 	0.06075 0.11305 0.75510 0.05200
H 	H 	0.03235 0.11007 0.80380 0.04400
C 	C 	0.12194 0.05307 0.24055 -0.04000
C 	C 	0.11099 0.04820 0.27055 -0.12600
C 	C 	0.01219 0.03583 0.31139 -0.06900
H 	H 	0.17832 0.11521 0.22829 0.03600
H 	H 	0.16106 0.10546 0.28181 0.05300
H 	H 	0.02114 0.08870 0.28739 0.04000
C 	C 	0.09461 0.29641 0.59227 -0.11900
C 	C 	0.10857 0.30627 0.62421 -0.04300
C 	C 	0.14445 0.38824 0.62690 0.13800
C 	C 	0.17088 0.46319 0.59800 -0.03700
C 	C 	0.15484 0.45304 0.56573 -0.09000
C 	C 	0.11668 0.37018 0.56275 0.18600
H 	H 	0.08852 0.24919 0.64676 0.05200
O 	O 	0.15614 0.39555 0.65828 -0.27500
H 	H 	0.17630 0.51050 0.54339 0.07800
O 	O 	0.10228 0.36205 0.53110 -0.28100
H 	H 	0.03880 0.34704 0.51778 0.15200
H 	H 	0.21950 0.41087 0.67221 0.15000
C 	C 	0.27222 0.73269 0.61750 -0.03700
C 	C 	0.34058 0.82573 0.61023 -0.08800
C 	C 	0.32731 0.88295 0.60958 0.18500
C 	C 	0.24283 0.84860 0.61431 -0.11100
C 	C 	0.17755 0.75536 0.62451 -0.03900
C 	C 	0.19092 0.69736 0.62542 0.14200
H 	H 	0.40410 0.85415 0.60462 0.08200
O 	O 	0.39457 0.97336 0.60177 -0.26800
H 	H 	0.11380 0.72774 0.62964 0.07100
O 	O 	0.12565 0.60687 0.63475 -0.26600
H 	H 	0.07876 0.59057 0.61236 0.15600
H 	H 	0.43619 0.98776 0.62496 0.16500
C 	C 	0.09620 0.29552 0.09499 -0.12200
C 	C 	0.10892 0.36538 0.06435 -0.03900
C 	C 	0.14521 0.44870 0.06611 0.13600
C 	C 	0.17017 0.46317 0.09881 -0.04200
C 	C 	0.15185 0.39160 0.12888 -0.09200
C 	C 	0.11850 0.30948 0.12741 0.18300
H 	H 	0.08824 0.35452 0.03897 0.06000
O 	O 	0.16098 0.51731 0.03619 -0.27000
H 	H 	0.17072 0.40179 0.15418 0.06800
O 	O 	0.10454 0.24163 0.15757 -0.29600
H 	H 	0.16446 0.24827 0.16839 0.15000
H 	H 	0.10249 0.51319 0.02560 0.15100
C 	C 	0.27527 0.73901 0.11390 -0.03900
C 	C 	0.19920 0.70402 0.12512 -0.08500
C 	C 	0.18503 0.76144 0.12417 0.18300
C 	C 	0.24578 0.85461 0.11093 -0.10800
C 	C 	0.32586 0.88928 0.10273 -0.04500
C 	C 	0.33868 0.83254 0.10262 0.14400
H 	H 	0.15132 0.63264 0.13475 0.07400
O 	O 	0.10993 0.72599 0.13484 -0.28100
H 	H 	0.37455 0.96075 0.09351 0.08000
O 	O 	0.41267 0.86880 0.09093 -0.26200
H 	H 	0.38855 0.87315 0.06513 0.16100
H 	H 	0.13334 0.72371 0.16044 0.16000
C 	C 	0.50246 0.24201 0.52882 -0.04300
C 	C 	0.44771 0.24302 0.49413 -0.09300
C 	C 	0.35537 0.21126 0.48728 0.18600
C 	C 	0.31704 0.17716 0.51540 -0.13100
C 	C 	0.37485 0.18430 0.54958 -0.03500
C 	C 	0.46699 0.21551 0.55646 0.13700
H 	H 	0.47643 0.26757 0.47251 0.07100
O 	O 	0.30245 0.21348 0.45313 -0.28600
H 	H 	0.34637 0.15963 0.57129 0.05200
H 	H 	0.27575 0.15818 0.44834 0.14100
C 	C 	0.50367 0.24653 0.02734 -0.05200
C 	C 	0.47175 0.22819 0.05429 -0.09400
C 	C 	0.37995 0.19729 0.04789 0.18400
C 	C 	0.31944 0.18471 0.01420 -0.13300
C 	C 	0.35518 0.21304 0.98635 -0.03800
C 	C 	0.44620 0.24179 0.99298 0.14000
O 	O 	0.34930 0.17873 0.07461 -0.28900
H 	H 	0.31009 0.20683 0.96001 0.05500
O 	O 	0.47956 0.26707 0.96572 -0.27100
H 	H 	0.46235 0.21171 0.96473 0.14200
H 	H 	0.32760 0.11650 0.08788 0.13400
C 	C 	0.70459 0.25865 0.03754 0.14500
N 	N 	0.61555 0.23131 0.02965 -0.14800
C 	C 	0.59933 0.27728 0.03463 0.14400
N 	N 	0.67167 0.35085 0.04714 -0.14000
C 	C 	0.70296 0.25686 0.53660 0.14300
N 	N 	0.61403 0.22901 0.52937 -0.14700
C 	C 	0.59800 0.27290 0.53588 0.14200
N 	N 	0.67053 0.34594 0.54872 -0.13300
C 	C 	0.68802 0.76646 0.64403 -0.12000
C 	C 	0.62741 0.75082 0.61084 -0.03800
C 	C 	0.53470 0.71799 0.60413 0.14500
C 	C 	0.50112 0.69769 0.63111 -0.04400
C 	C 	0.56001 0.70818 0.66488 -0.08800
C 	C 	0.65289 0.74135 0.67156 0.18500
H 	H 	0.65381 0.76968 0.58954 0.07200
O 	O 	0.47712 0.70647 0.57108 -0.27000
H 	H 	0.53377 0.69052 0.68598 0.07400
H 	H 	0.48515 0.76394 0.55779 0.16500
C 	C 	0.68734 0.76315 0.14346 -0.12200
C 	C 	0.62830 0.75106 0.10976 -0.03600
C 	C 	0.53565 0.71885 0.10270 0.14300
C 	C 	0.50124 0.69773 0.12958 -0.03800
C 	C 	0.55838 0.70456 0.16380 -0.08900
C 	C 	0.65079 0.73593 0.17094 0.18600
H 	H 	0.65592 0.77204 0.08844 0.07100
O 	O 	0.48053 0.71323 0.06899 -0.25900
H 	H 	0.53121 0.68567 0.18485 0.07400
H 	H 	0.45006 0.65281 0.06777 0.15600
O 	O 	0.52219 0.21966 0.59021 -0.27700
H 	H 	0.51194 0.16105 0.60138 0.13500
H 	H 	0.58996 0.07843 0.05086 0.04300
H 	H 	0.61515 0.94077 0.08106 0.16300
H 	H 	0.51752 0.23593 0.08044 0.06400
Co	Co	0.03023 0.87357 0.58890 1.18600
O 	O 	0.05440 0.78945 0.55511 -0.40700
C 	C 	0.00763 0.98259 0.83562 0.05000
O 	O 	0.70693 0.74452 0.20436 -0.28200
H 	H 	0.69961 0.68727 0.21663 0.14800
C 	C 	0.65087 0.10587 0.54319 -0.06000
C 	C 	0.66606 0.04951 0.54444 0.07500
H 	H 	0.58780 0.07681 0.54934 0.04400
O 	O 	0.59922 0.95887 0.55189 -0.21000
H 	H 	0.61134 0.93867 0.57807 0.15300
C 	C 	0.65352 0.10744 0.04509 -0.05700
O 	O 	0.60330 0.96036 0.05488 -0.19700
C 	C 	0.71820 0.19898 0.53545 -0.06200
C 	C 	0.66978 0.05105 0.04717 0.07400
Co	Co	0.03195 0.87696 0.08728 1.18900
O 	O 	0.05569 0.79609 0.05143 -0.40000
O 	O 	0.71059 0.75322 0.70454 -0.27800
C 	C 	0.05528 0.98117 0.22440 -0.02600
H 	H 	0.70464 0.69669 0.71759 0.15200
C 	C 	0.03361 0.97101 0.28502 0.09000
C 	C 	0.00313 0.91173 0.83741 -0.02600
C 	C 	0.01816 0.91302 0.80937 -0.05400
C 	C 	0.72040 0.20057 0.03700 -0.06400
C 	C 	0.01609 0.96914 0.31451 0.05000
H 	H 	0.01242 0.85722 0.81076 0.06000
C 	C 	0.76076 0.38094 0.05373 0.14200
C 	C 	0.75960 0.37732 0.55428 0.14300
C 	C 	0.74950 0.08564 0.53819 -0.07000
C 	C 	0.75366 0.08727 0.04123 -0.06700
C 	C 	0.00309 0.90059 0.34571 -0.02700
H 	H 	0.00645 0.84912 0.34869 0.04700
N 	N 	0.77769 0.33453 0.04924 -0.13700
N 	N 	0.77634 0.33236 0.54859 -0.13600
O 	O 	0.77685 0.97955 0.58520 -0.30400
O 	O 	0.77912 0.97902 0.08735 -0.29900
H 	H 	0.99526 0.08672 0.33679 0.05200
C 	C 	0.98955 0.98062 0.86500 0.09700
C 	C 	0.99675 0.03437 0.33935 -0.14200
O 	O 	0.97431 0.00171 0.97348 -0.44500
C 	C 	0.96372 0.97069 0.92450 -0.02000
C 	C 	0.97102 0.95127 0.96233 0.36500
O 	O 	0.98511 0.89048 0.98487 -0.39200
Co	Co	0.96464 0.05968 0.06338 1.15100
O 	O 	0.95223 0.14904 0.09803 -0.42300
Co	Co	0.96225 0.05834 0.56165 1.15100
O 	O 	0.94883 0.15141 0.59354 -0.43300
C 	C 	0.84547 0.48700 0.08921 -0.08900
H 	H 	0.81456 0.43210 0.11099 0.06600
O 	O 	0.89341 0.58900 0.11685 -0.27800
H 	H 	0.83409 0.57968 0.11186 0.15500
Co	Co	0.96083 0.91421 0.12613 1.18700
C 	C 	0.97408 0.73756 0.05965 0.33000
Co	Co	0.89766 0.01902 0.12793 1.12900
O 	O 	0.94152 0.99412 0.10350 -0.70100
O 	O 	0.99454 0.83774 0.13149 -0.45000
O 	O 	0.96935 0.94929 0.07073 -0.54700
C 	C 	0.78890 0.82197 0.14761 0.32500
O 	O 	0.83962 0.89081 0.16037 -0.38100
O 	O 	0.82593 0.81453 0.13317 -0.38700
C 	C 	0.78612 0.03126 0.05524 0.20900
O 	O 	0.83815 0.04744 0.03876 -0.38000
O 	O 	0.94618 0.75818 0.07273 -0.37500
Co	Co	0.96032 0.91612 0.62596 1.18600
C 	C 	0.97203 0.73187 0.56257 0.32300
Co	Co	0.89639 0.02316 0.62510 1.12600
O 	O 	0.94005 0.99536 0.60204 -0.70100
O 	O 	0.99390 0.83817 0.63278 -0.45200
O 	O 	0.96762 0.94687 0.57087 -0.54900
C 	C 	0.78933 0.82601 0.64741 0.32400
C 	C 	0.97001 0.94126 0.46430 0.30500
O 	O 	0.84015 0.89666 0.65905 -0.37200
O 	O 	0.82559 0.81731 0.63315 -0.38400
O 	O 	0.98313 0.88075 0.48803 -0.38400
O 	O 	0.97404 0.99456 0.47394 -0.32200
C 	C 	0.78269 0.02995 0.55278 0.20700
O 	O 	0.83535 0.04586 0.53664 -0.38000
O 	O 	0.94471 0.75272 0.57583 -0.38000
C 	C 	0.90886 0.90538 0.87788 -0.06600
C 	C 	0.89612 0.90046 0.90743 0.01700
H 	H 	0.85724 0.84966 0.86566 0.06000
H 	H 	0.83663 0.83967 0.91839 0.04600
H 	H 	0.98769 0.85562 0.86037 0.04900
C 	C 	0.97194 0.89609 0.27094 -0.05900
C 	C 	0.98366 0.90080 0.24114 0.01700
C 	C 	0.98691 0.89884 0.37342 -0.05100
C 	C 	0.98412 0.96584 0.37049 0.10500
C 	C 	0.97479 0.96659 0.40071 0.03400
C 	C 	0.96989 0.96009 0.42832 -0.05800
H 	H 	0.91287 0.83540 0.28215 0.05900
H 	H 	0.93243 0.84422 0.22943 0.04500
H 	H 	0.97793 0.84595 0.39743 0.05500
C 	C 	0.81160 0.17866 0.52643 -0.06800
C 	C 	0.79762 0.23548 0.52589 0.15300
H 	H 	0.87416 0.20721 0.52009 0.06300
O 	O 	0.86029 0.32612 0.51520 -0.27900
H 	H 	0.91064 0.34459 0.53674 0.14900
C 	C 	0.91727 0.63930 0.56115 -0.11800
C 	C 	0.90985 0.62445 0.53193 -0.04100
C 	C 	0.87160 0.53929 0.53197 0.14000
C 	C 	0.83567 0.46676 0.56060 -0.04200
C 	C 	0.84909 0.48252 0.59088 -0.08900
C 	C 	0.88892 0.56819 0.59115 0.18500
H 	H 	0.93465 0.67943 0.50919 0.05900
O 	O 	0.86176 0.52567 0.50260 -0.27100
H 	H 	0.82316 0.42721 0.61338 0.07200
O 	O 	0.90306 0.58266 0.62116 -0.28700
H 	H 	0.84457 0.57149 0.61881 0.15900
H 	H 	0.91933 0.53266 0.50701 0.15300
C 	C 	0.81593 0.18028 0.02953 -0.06900
C 	C 	0.80071 0.23704 0.02807 0.15500
H 	H 	0.87934 0.20891 0.02377 0.06500
O 	O 	0.86299 0.32764 0.01707 -0.27700
H 	H 	0.91282 0.34691 0.03861 0.14700
C 	C 	0.92108 0.64445 0.05929 -0.11300
C 	C 	0.91935 0.62806 0.03193 -0.04000
C 	C 	0.87977 0.54173 0.03287 0.14100
C 	C 	0.83718 0.46988 0.06045 -0.04300
C 	C 	0.88599 0.57361 0.08854 0.18800
H 	H 	0.94889 0.68257 0.00982 0.05900
O 	O 	0.87534 0.52666 0.00517 -0.27000
H 	H 	0.93258 0.53071 0.01207 0.15100
