data_crystal

_cell_length_a 14.02328
_cell_length_b 14.95217
_cell_length_c 45.68929
_cell_angle_alpha 90.77003
_cell_angle_beta  90.96114
_cell_angle_gamma 110.91759

_symmetry_space_group_name_	'P 1'
_symmetry_space_group_name_H-M	'P 1'

loop_
_symmetry_equiv_pos_as_xyz
  x,y,z

loop_
_atom_site_label
_atom_site_type_symbol
_atom_site_fract_x
_atom_site_fract_y
_atom_site_fract_z
_atom_site_charge
Ni	Ni	0.15024 0.17690 0.77112 1.10100
O 	O 	0.13173 0.29085 0.79333 -0.36600
O 	O 	0.26895 0.18299 0.79918 -0.37100
O 	O 	0.35366 0.17322 0.74757 -0.40500
O 	O 	0.12948 0.05663 0.74791 -0.70000
O 	O 	0.25528 0.26726 0.74440 -0.37200
O 	O 	0.18505 0.88363 0.74784 -0.41500
Ni	Ni	0.25693 0.03274 0.74849 1.06600
H 	H 	0.08617 0.06386 0.81456 0.15300
H 	H 	0.10850 0.06343 0.72751 0.15500
O 	O 	0.26578 0.02973 0.79297 -0.41200
C 	C 	0.28443 0.10718 0.80938 0.28900
C 	C 	0.09626 0.83780 0.73448 0.27200
C 	C 	0.33239 0.24382 0.73506 0.27300
O 	O 	0.32464 0.57678 0.38116 -0.70500
Ni	Ni	0.19733 0.60396 0.37245 1.10100
O 	O 	0.42764 0.52081 0.43041 -0.40400
Ni	Ni	0.29085 0.46631 0.40623 1.06500
O 	O 	0.22616 0.52227 0.43814 -0.40200
O 	O 	0.12391 0.48172 0.34907 -0.37500
O 	O 	0.27896 0.72092 0.39786 -0.70300
O 	O 	0.09100 0.66031 0.35880 -0.36900
O 	O 	0.21832 0.79649 0.34482 -0.42900
Ni	Ni	0.30618 0.84986 0.38258 1.06500
H 	H 	0.35486 0.56456 0.36279 0.16100
H 	H 	0.24986 0.71794 0.41755 0.15000
C 	C 	0.14172 0.53967 0.43382 0.25600
C 	C 	0.13562 0.40228 0.35748 0.28200
C 	C 	0.12038 0.74432 0.34641 0.26200
O 	O 	0.10623 0.54273 0.40717 -0.36100
O 	O 	0.15474 0.39061 0.38543 -0.40400
Ni	Ni	0.29920 0.64086 0.14244 1.09900
O 	O 	0.15216 0.59350 0.12505 -0.69800
Ni	Ni	0.08415 0.64988 0.15462 1.09600
O 	O 	0.19387 0.41787 0.12716 -0.40600
Ni	Ni	0.06931 0.45750 0.11917 1.07100
O 	O 	0.23450 0.71385 0.16702 -0.70400
O 	O 	0.04404 0.73854 0.18283 -0.36400
O 	O 	0.15763 0.87080 0.16184 -0.41300
Ni	Ni	0.29375 0.84787 0.15613 1.06400
H 	H 	0.15046 0.62484 0.10624 0.14600
H 	H 	0.24654 0.70620 0.18810 0.15800
C 	C 	0.03520 0.45992 0.18433 0.29700
O 	O 	0.25608 0.82028 0.11293 -0.41300
C 	C 	0.27678 0.45979 0.11224 0.26500
C 	C 	0.30867 0.78474 0.09594 0.26100
C 	C 	0.09657 0.83155 0.18338 0.27100
O 	O 	0.07463 0.55410 0.18744 -0.38600
O 	O 	0.03574 0.85008 0.27637 -0.42300
Ni	Ni	0.09029 0.97784 0.29978 1.06400
O 	O 	0.17898 0.03836 0.26525 -0.39200
O 	O 	0.12709 0.20006 0.28827 -0.37400
C 	C 	0.13773 0.03337 0.23923 0.32300
C 	C 	0.14261 0.18336 0.31595 0.28100
O 	O 	0.07833 0.08147 0.23371 -0.38100
O 	O 	0.15114 0.10150 0.32372 -0.40500
C 	C 	0.01594 0.40047 0.21070 -0.08500
H 	H 	0.07733 0.41307 0.22686 0.07300
C 	C 	0.07867 0.89338 0.20632 -0.07900
C 	C 	0.15558 0.97159 0.21640 -0.12900
H 	H 	0.00330 0.87379 0.21566 0.04100
H 	H 	0.23274 0.98705 0.20880 0.04400
C 	C 	0.11169 0.32142 0.33664 -0.10000
C 	C 	0.16244 0.26060 0.33795 -0.09600
H 	H 	0.05822 0.31597 0.31859 0.06700
H 	H 	0.21531 0.26532 0.35609 0.04400
C 	C 	0.04463 0.77919 0.33328 -0.07800
H 	H 	0.05640 0.85465 0.33639 -0.03000
H 	H 	0.30011 0.96494 0.53081 0.04800
H 	H 	0.30350 0.90114 0.47423 0.03600
C 	C 	0.11417 0.61756 0.53340 -0.08700
C 	C 	0.07010 0.58783 0.50545 0.01500
N 	N 	0.01408 0.46972 0.47146 -0.14900
C 	C 	0.08181 0.54789 0.45910 0.00400
C 	C 	0.11823 0.62271 0.47959 -0.05400
H 	H 	0.16352 0.69108 0.53779 0.05000
H 	H 	0.19207 0.67981 0.47851 0.03500
C 	C 	0.41524 0.31595 0.71957 -0.08100
H 	H 	0.35392 0.27401 0.67706 0.06100
H 	H 	0.11178 0.77115 0.69248 0.04400
C 	C 	0.31502 0.52158 0.00758 -0.08500
C 	C 	0.29778 0.52135 0.06117 -0.03700
H 	H 	0.32141 0.59512 0.00431 0.05300
H 	H 	0.27417 0.58260 0.06324 0.03000
C 	C 	0.33606 0.11488 0.83794 -0.09000
H 	H 	0.31628 0.15529 0.85526 0.07000
C 	C 	0.03862 0.29013 0.79736 0.28000
O 	O 	0.34510 0.53861 0.12306 -0.35600
C 	C 	0.00715 0.49327 0.49971 0.07400
C 	C 	0.32612 0.48893 0.03556 0.01000
C 	C 	0.27275 0.44518 0.08030 -0.04300
H 	H 	0.37757 0.55719 0.95180 0.08700
C 	C 	0.09333 0.54909 0.55543 0.08000
H 	H 	0.10776 0.64023 0.59245 0.08400
C 	C 	0.08596 0.75650 0.71480 -0.08600
O 	O 	0.35100 0.72581 0.10647 -0.36500
C 	C 	0.36876 0.88655 0.48290 -0.05200
H 	H 	0.21811 0.87991 0.05688 0.08000
C 	C 	0.30042 0.45752 0.98374 0.07300
N 	N 	0.33860 0.48578 0.95716 -0.15100
N 	N 	0.29345 0.88377 0.05441 -0.15100
H 	H 	0.25544 0.98585 0.00883 0.04300
H 	H 	0.44043 0.05136 0.82430 0.06900
C 	C 	0.42357 0.09787 0.84027 -0.09200
Ni	Ni	0.41232 0.70197 0.40147 1.09800
O 	O 	0.38166 0.91265 0.42014 -0.40700
C 	C 	0.42239 0.30912 0.69040 -0.10700
C 	C 	0.33394 0.82273 0.06639 -0.00600
C 	C 	0.42307 0.82822 0.05234 -0.04400
H 	H 	0.45807 0.77434 0.05306 0.05300
O 	O 	0.53097 0.65388 0.40725 -0.36300
O 	O 	0.46101 0.74417 0.36025 -0.40000
O 	O 	0.49467 0.83308 0.41960 -0.37800
O 	O 	0.44307 0.89040 0.36114 -0.40000
C 	C 	0.51653 0.57010 0.41897 0.24600
C 	C 	0.48712 0.83211 0.35110 0.30900
C 	C 	0.44656 0.88074 0.43400 0.25700
O 	O 	0.43920 0.85070 0.15040 -0.41300
O 	O 	0.44167 0.70161 0.16054 -0.37200
C 	C 	0.37902 0.96989 0.53016 -0.10200
C 	C 	0.40985 0.91236 0.51075 0.01200
C 	C 	0.44748 0.87951 0.46609 -0.01600
C 	C 	0.66145 0.42446 0.48585 -0.08200
C 	C 	0.67438 0.47490 0.45965 0.01700
N 	N 	0.69074 0.61559 0.43939 -0.15000
C 	C 	0.60640 0.54725 0.42780 0.00600
C 	C 	0.59620 0.45862 0.43912 -0.04900
H 	H 	0.60342 0.35369 0.48728 0.05500
H 	H 	0.52413 0.39903 0.43994 0.03900
H 	H 	0.70064 0.68831 0.44046 0.09200
H 	H 	0.48228 0.35913 0.73239 0.06800
C 	C 	0.48404 0.89416 0.00395 -0.08800
C 	C 	0.43506 0.89404 0.03044 0.01100
C 	C 	0.35383 0.92605 0.03219 0.06900
H 	H 	0.54739 0.86903 0.00271 0.05000
N 	N 	0.28715 0.36906 0.06748 -0.14700
Ni	Ni	0.56168 0.31950 0.90331 1.09700
O 	O 	0.42901 0.34462 0.90689 -0.37200
O 	O 	0.47490 0.50719 0.91000 -0.38900
O 	O 	0.51141 0.24604 0.86503 -0.39800
O 	O 	0.49815 0.19717 0.92711 -0.38400
O 	O 	0.58648 0.13361 0.86430 -0.40600
C 	C 	0.42869 0.42146 0.92099 0.25400
C 	C 	0.50594 0.15801 0.86005 0.30800
C 	C 	0.53751 0.12964 0.93157 0.26500
O 	O 	0.58831 0.29726 0.69074 -0.42100
O 	O 	0.58502 0.26526 0.60020 -0.37300
C 	C 	0.52297 0.32736 0.67725 0.29600
C 	C 	0.54960 0.17778 0.61046 0.25100
O 	O 	0.53832 0.35628 0.65000 -0.37000
O 	O 	0.52841 0.16339 0.63858 -0.40900
C 	C 	0.47854 0.79550 0.16488 0.27800
C 	C 	0.57337 0.84094 0.18201 -0.09400
C 	C 	0.59913 0.79541 0.20405 -0.10000
H 	H 	0.56223 0.71846 0.20620 0.07900
C 	C 	0.55710 0.86070 0.32629 -0.09100
H 	H 	0.63153 0.00479 0.34037 0.08500
C 	C 	0.51206 0.92005 0.50960 0.07500
C 	C 	0.58574 0.98306 0.52872 -0.10100
C 	C 	0.55451 0.04166 0.54741 0.02500
C 	C 	0.45386 0.03506 0.54829 0.08900
N 	N 	0.53401 0.89912 0.48236 -0.15100
N 	N 	0.43441 0.06680 0.57435 -0.15100
C 	C 	0.52343 0.09634 0.59001 -0.00900
C 	C 	0.59873 0.07779 0.57421 -0.05700
H 	H 	0.37299 0.08907 0.57824 0.08800
C 	C 	0.45178 0.93238 0.97938 0.07600
C 	C 	0.31876 0.96069 0.00747 -0.07900
C 	C 	0.36888 0.96286 0.98098 -0.00800
N 	N 	0.51646 0.98125 0.95879 -0.15800
C 	C 	0.47606 0.04321 0.94733 0.00400
C 	C 	0.38422 0.03358 0.96050 -0.02800
H 	H 	0.35277 0.08996 0.96193 0.04800
C 	C 	0.31775 0.39490 0.04003 0.07600
C 	C 	0.30001 0.32966 0.01637 -0.08700
C 	C 	0.29130 0.36279 0.98813 0.01000
C 	C 	0.35474 0.41025 0.94451 0.00400
C 	C 	0.32611 0.33243 0.96310 -0.05100
H 	H 	0.29408 0.25631 0.01974 0.05300
H 	H 	0.35814 0.27633 0.96263 0.04700
H 	H 	0.25663 0.29870 0.07474 0.07900
H 	H 	0.58759 0.42288 0.85691 0.16100
H 	H 	0.60734 0.92372 0.47378 0.08500
O 	O 	0.64391 0.47259 0.60123 -0.37800
O 	O 	0.62089 0.43455 0.87658 -0.69400
Ni	Ni	0.62208 0.55748 0.89260 1.06700
O 	O 	0.63546 0.14543 0.92750 -0.41400
Ni	Ni	0.67069 0.37354 0.62726 1.09900
Ni	Ni	0.63887 0.19994 0.67115 1.06400
H 	H 	0.61463 0.91723 0.17949 0.03600
C 	C 	0.63077 0.94810 0.32514 -0.10600
H 	H 	0.55556 0.80570 0.31028 0.07900
C 	C 	0.71180 0.47335 0.51121 0.07800
N 	N 	0.67184 0.45206 0.53791 -0.15300
C 	C 	0.70795 0.53303 0.55449 0.00400
H 	H 	0.63827 0.38282 0.54585 0.08900
H 	H 	0.59410 0.99103 0.95863 0.07900
H 	H 	0.66495 0.98898 0.52814 0.04900
H 	H 	0.68018 0.11112 0.57842 0.03000
N 	N 	0.09163 0.57083 0.58406 -0.14900
C 	C 	0.71969 0.53054 0.58631 0.24500
C 	C 	0.73137 0.57292 0.45924 0.07700
O 	O 	0.68514 0.53665 0.93115 -0.40800
C 	C 	0.67078 0.85079 0.22698 0.28000
Ni	Ni	0.71142 0.20403 0.89092 1.06600
O 	O 	0.70644 0.32900 0.90182 -0.70800
O 	O 	0.73989 0.29804 0.64928 -0.70100
H 	H 	0.71463 0.48417 0.67245 0.16000
O 	O 	0.65043 0.91988 0.24107 -0.41900
O 	O 	0.05096 0.07546 0.79690 -0.69800
H 	H 	0.01005 0.41733 0.81357 0.07400
H 	H 	0.69250 0.39717 0.97549 0.02900
C 	C 	0.02033 0.35181 0.82023 -0.11000
C 	C 	0.76995 0.60768 0.53797 -0.04700
C 	C 	0.71223 0.96685 0.30330 0.27800
C 	C 	0.77336 0.56970 0.51044 0.01300
C 	C 	0.78191 0.62161 0.48476 -0.08100
H 	H 	0.73811 0.34598 0.92158 0.15300
O 	O 	0.73753 0.21712 0.70695 -0.41100
O 	O 	0.75763 0.47310 0.65688 -0.70400
H 	H 	0.67609 0.39628 0.03484 0.05400
C 	C 	0.03144 0.45462 0.54966 0.00300
H 	H 	0.72891 0.05902 0.72693 0.05900
Ni	Ni	0.76515 0.43877 0.87355 1.10000
O 	O 	0.76109 0.64185 0.87756 -0.40800
O 	O 	0.73880 0.81722 0.23780 -0.37400
O 	O 	0.74681 0.05023 0.29051 -0.40500
C 	C 	0.02320 0.66845 0.72159 -0.09300
Ni	Ni	0.01486 0.95976 0.77054 1.09100
O 	O 	0.01231 0.84927 0.74333 -0.37500
H 	H 	0.77330 0.26788 0.63536 0.15100
H 	H 	0.81471 0.69915 0.48548 0.05000
O 	O 	0.80313 0.25573 0.85503 -0.42900
C 	C 	0.77632 0.53038 0.93283 0.25100
C 	C 	0.79568 0.62939 0.85168 0.28500
O 	O 	0.81283 0.56357 0.59783 -0.40900
O 	O 	0.74088 0.89572 0.29473 -0.36700
H 	H 	0.82136 0.67630 0.54642 0.04000
C 	C 	0.73286 0.46742 0.03284 -0.08400
C 	C 	0.76577 0.45239 0.98077 -0.05400
H 	H 	0.78662 0.80381 0.85798 0.05800
H 	H 	0.73271 0.43289 0.08978 0.09000
O 	O 	0.81565 0.55148 0.84613 -0.38300
Ni	Ni	0.75143 0.05786 0.24601 1.06900
C 	C 	0.79518 0.49081 0.00846 0.01300
C 	C 	0.81933 0.52317 0.96155 -0.00400
C 	C 	0.75523 0.53356 0.05640 0.08000
O 	O 	0.82823 0.52879 0.90905 -0.35900
C 	C 	0.82736 0.79606 0.83865 -0.09300
N 	N 	0.75838 0.50506 0.08405 -0.14900
Ni	Ni	0.84479 0.40450 0.67402 1.10000
Ni	Ni	0.84621 0.59649 0.64217 1.06800
C 	C 	0.83425 0.22788 0.70394 0.27300
O 	O 	0.82309 0.01753 0.77688 -0.39800
C 	C 	0.81109 0.07892 0.72950 -0.11300
C 	C 	0.83808 0.71208 0.83246 -0.09700
O 	O 	0.89284 0.63552 0.68413 -0.41400
C 	C 	0.85068 0.02483 0.74966 0.31500
C 	C 	0.87589 0.88083 0.82083 0.28700
Ni	Ni	0.85199 0.90282 0.26477 1.09600
O 	O 	0.83227 0.20622 0.24807 -0.40600
C 	C 	0.86504 0.58235 0.00515 0.07500
H 	H 	0.87997 0.70472 0.81333 0.07500
C 	C 	0.02897 0.49044 0.59674 -0.01100
O 	O 	0.89725 0.41102 0.86769 -0.36800
C 	C 	0.89218 0.32626 0.85780 0.26200
O 	O 	0.86720 0.78405 0.28384 -0.36600
C 	C 	0.87449 0.16086 0.71834 -0.08400
C 	C 	0.82706 0.62587 0.05333 0.01200
N 	N 	0.87994 0.60209 0.97660 -0.15000
O 	O 	0.88799 0.96624 0.83238 -0.42200
H 	H 	0.91719 0.35817 0.57783 0.03200
O 	O 	0.89845 0.30766 0.69321 -0.36600
O 	O 	0.89258 0.86916 0.79275 -0.37500
H 	H 	0.86134 0.32119 0.19970 0.06200
C 	C 	0.83684 0.57330 0.09816 0.00300
O 	O 	0.87325 0.02515 0.24351 -0.70000
H 	H 	0.90363 0.67134 0.96834 0.08600
H 	H 	0.88802 0.01722 0.22272 0.16000
C 	C 	0.87907 0.65281 0.02697 -0.08600
O 	O 	0.93945 0.41390 0.63946 -0.38000
Ni	Ni	0.92396 0.08878 0.80948 1.07500
H 	H 	0.93446 0.35214 0.51778 0.05000
H 	H 	0.00586 0.65087 0.74436 0.06900
C 	C 	0.87598 0.65202 0.08030 -0.04900
O 	O 	0.92066 0.99204 0.74119 -0.39600
O 	O 	0.95634 0.51612 0.69592 -0.36900
C 	C 	0.95755 0.60522 0.69879 0.30300
H 	H 	0.93343 0.01309 0.30922 0.15600
C 	C 	0.91856 0.24878 0.23421 0.27200
C 	C 	0.90844 0.54413 0.11561 0.25900
C 	C 	0.92648 0.32718 0.21386 -0.08500
H 	H 	0.95668 0.18053 0.72112 0.05100
H 	H 	0.96394 0.65237 0.30928 0.08200
O 	O 	0.97922 0.57398 0.63562 -0.39300
O 	O 	0.94517 0.48223 0.10379 -0.40400
C 	C 	0.97888 0.49265 0.62469 0.27500
O 	O 	0.96067 0.21648 0.78764 -0.40900
C 	C 	0.95908 0.78088 0.28708 0.29600
O 	O 	0.93441 0.57866 0.14247 -0.37000
H 	H 	0.93411 0.72448 0.02441 0.05100
O 	O 	0.96279 0.00045 0.29076 -0.69000
O 	O 	0.00052 0.41824 0.15879 -0.39300
H 	H 	0.95312 0.70366 0.08289 0.03200
H 	H 	0.99853 0.39960 0.46378 0.08700
H 	H 	0.00035 0.25151 0.85327 0.00600
C 	C 	0.98107 0.72895 0.31171 -0.11600
C 	C 	0.98956 0.41676 0.57597 -0.03300
C 	C 	0.98420 0.42558 0.52206 -0.07700
C 	C 	0.98318 0.31303 0.84587 -0.07600
O 	O 	0.00168 0.23178 0.24141 -0.36400
Ni	Ni	0.99752 0.11696 0.26589 1.09600
