data_crystal

_cell_length_a 20.24735
_cell_length_b 21.38511
_cell_length_c 31.23368
_cell_angle_alpha 60.80950
_cell_angle_beta  118.89504
_cell_angle_gamma 133.22009

_symmetry_space_group_name_	'P 1'
_symmetry_space_group_name_H-M	'P 1'

loop_
_symmetry_equiv_pos_as_xyz
  x,y,z

loop_
_atom_site_label
_atom_site_type_symbol
_atom_site_fract_x
_atom_site_fract_y
_atom_site_fract_z
_atom_site_charge
Co	Co	0.06756 0.02164 0.05165 1.16300
O 	O 	0.05254 0.11529 0.03881 -0.44900
O 	O 	0.04985 0.92247 0.08054 -0.73500
C 	C 	0.03612 0.01542 0.26685 0.23400
Co	Co	0.08429 0.02670 0.56031 1.16500
Co	Co	0.02660 0.10102 0.60030 1.17900
Co	Co	0.08427 0.87248 0.56192 1.17900
O 	O 	0.05487 0.14238 0.70357 -0.38200
O 	O 	0.04020 0.91856 0.58095 -0.73300
C 	C 	0.06525 0.01543 0.83586 -0.03600
F 	F 	0.02740 0.61734 0.21216 -0.42200
O 	O 	0.09442 0.79046 0.12193 -0.35700
O 	O 	0.04778 0.76194 0.62167 -0.38000
C 	C 	0.04416 0.98724 0.95940 0.33700
O 	O 	0.00860 0.00114 0.97754 -0.40300
O 	O 	0.02856 0.07921 0.23300 -0.37200
O 	O 	0.03315 0.96237 0.25297 -0.30000
C 	C 	0.07515 0.00428 0.46716 0.24100
O 	O 	0.04798 0.03006 0.48287 -0.35900
C 	C 	0.01328 0.98516 0.90506 -0.00300
C 	C 	0.05554 0.00869 0.32166 -0.08300
C 	C 	0.05321 0.01047 0.41230 -0.08800
C 	C 	0.07173 0.22404 0.13298 0.34700
C 	C 	0.11391 0.08934 0.38158 0.01600
O 	O 	0.09991 0.13495 0.55566 -0.44500
C 	C 	0.11579 0.08790 0.33733 -0.00200
Co	Co	0.09960 0.88777 0.05713 1.19000
O 	O 	0.11199 0.98004 0.98855 -0.37100
C 	C 	0.08284 0.03648 0.87849 -0.04400
O 	O 	0.09642 0.19151 0.12148 -0.37300
C 	C 	0.07706 0.76924 0.66743 0.36400
O 	O 	0.06850 0.81723 0.67667 -0.36100
C 	C 	0.07735 0.63735 0.71393 0.36300
H 	H 	0.08147 0.53773 0.71615 0.12000
F 	F 	0.09059 0.37886 0.06053 -0.42300
O 	O 	0.12675 0.97706 0.49952 -0.33500
O 	O 	0.11543 0.84648 0.17660 -0.35900
H 	H 	0.12852 0.34457 0.59628 0.09600
C 	C 	0.13021 0.80417 0.16655 0.35100
C 	C 	0.11728 0.20786 0.67658 0.34400
O 	O 	0.13181 0.19297 0.64594 -0.37000
C 	C 	0.11991 0.66700 0.21545 0.36300
H 	H 	0.11230 0.55714 0.22208 0.12200
C 	C 	0.12535 0.72862 0.70646 -0.11700
C 	C 	0.12187 0.60610 0.71635 -0.10800
F 	F 	0.01073 0.69217 0.05294 -0.45000
H 	H 	0.15279 0.08942 0.89302 0.07700
C 	C 	0.14144 0.06248 0.81398 0.13000
C 	C 	0.15309 0.35799 0.63230 -0.06800
C 	C 	0.13891 0.31079 0.14480 -0.12600
C 	C 	0.13098 0.37986 0.11000 0.36400
F 	F 	0.15720 0.48802 0.58967 -0.40400
Co	Co	0.00234 0.85316 0.13140 1.19300
H 	H 	0.15308 0.50002 0.09905 0.12300
H 	H 	0.16183 0.14950 0.31391 0.07200
C 	C 	0.17554 0.17235 0.39530 0.11200
C 	C 	0.16440 0.29909 0.67728 -0.13200
C 	C 	0.16825 0.43174 0.63362 0.31800
C 	C 	0.15727 0.62728 0.21986 -0.10600
C 	C 	0.17418 0.75975 0.20619 -0.11300
C 	C 	0.15826 0.44655 0.12650 -0.10700
F 	F 	0.98450 0.58133 0.71139 -0.39700
Co	Co	0.99350 0.08010 0.09186 1.18100
O 	O 	0.98502 0.17997 0.13266 -0.36100
C 	C 	0.94486 0.94782 0.76130 0.29400
N 	N 	0.22493 0.23896 0.40624 -0.06900
C 	C 	0.97493 0.94685 0.81614 0.01000
O 	O 	0.23052 0.98508 0.08680 -0.30600
O 	O 	0.21309 0.09325 0.06762 -0.37400
O 	O 	0.21520 0.94851 0.60377 -0.31100
O 	O 	0.22233 0.06751 0.59341 -0.38000
N 	N 	0.20259 0.09998 0.79652 -0.08000
H 	H 	0.26229 0.85126 0.71530 0.13700
C 	C 	0.18076 0.31330 0.19572 -0.07000
C 	C 	0.20696 0.37930 0.21233 0.32000
F 	F 	0.24617 0.37957 0.26192 -0.41800
H 	H 	0.18690 0.26038 0.22312 0.09700
C 	C 	0.71384 0.30134 0.00479 0.18300
N 	N 	0.76670 0.37903 0.01754 -0.13300
C 	C 	0.72510 0.41235 0.01337 0.17300
N 	N 	0.63189 0.36930 0.99492 -0.10000
C 	C 	0.57840 0.28551 0.99111 0.21900
N 	N 	0.61936 0.25453 0.99181 -0.12500
C 	C 	0.72603 0.30533 0.51276 0.18000
N 	N 	0.63695 0.24229 0.51898 -0.14100
C 	C 	0.59425 0.26322 0.52679 0.19300
N 	N 	0.64045 0.34640 0.52901 -0.12400
C 	C 	0.72937 0.40905 0.52419 0.19600
N 	N 	0.77258 0.38904 0.51582 -0.09900
C 	C 	0.28638 0.64232 0.21181 0.18500
N 	N 	0.37858 0.69171 0.21386 -0.10500
C 	C 	0.41010 0.66254 0.20354 0.19800
N 	N 	0.35082 0.58307 0.19284 -0.11900
C 	C 	0.25939 0.53265 0.19092 0.19600
N 	N 	0.22605 0.56216 0.19991 -0.13100
C 	C 	0.25873 0.64074 0.70317 0.18300
N 	N 	0.34446 0.70439 0.69264 -0.09900
C 	C 	0.37948 0.68607 0.67636 0.20100
N 	N 	0.32886 0.60468 0.66985 -0.12700
C 	C 	0.24462 0.53984 0.68122 0.19300
N 	N 	0.20911 0.55725 0.69830 -0.13400
Co	Co	0.95880 0.92607 0.18149 1.20000
C 	C 	0.25859 0.06804 0.06822 0.27200
Co	Co	0.91291 0.05040 0.17424 1.18700
C 	C 	0.91044 0.72845 0.06526 0.33500
O 	O 	0.80531 0.01746 0.11142 -0.36800
O 	O 	0.95818 0.01588 0.14731 -0.77800
C 	C 	0.82297 0.07532 0.06809 0.33300
O 	O 	0.96248 0.82690 0.19066 -0.42400
C 	C 	0.78795 0.85489 0.20419 0.36200
O 	O 	0.98280 0.95917 0.10684 -0.54700
O 	O 	0.88153 0.09214 0.04879 -0.36400
O 	O 	0.84105 0.92597 0.22014 -0.34600
O 	O 	0.81900 0.84493 0.18110 -0.37000
O 	O 	0.96043 0.79606 0.03199 -0.35800
O 	O 	0.90399 0.74017 0.10142 -0.35000
Co	Co	0.92222 0.92252 0.66642 1.20400
Co	Co	0.97434 0.84767 0.62401 1.19400
C 	C 	0.25813 0.03456 0.59213 0.28200
Co	Co	0.91722 0.06995 0.66724 1.15900
C 	C 	0.88240 0.73702 0.54893 0.33600
O 	O 	0.94730 0.18029 0.60740 -0.41100
O 	O 	0.95529 0.02716 0.64121 -0.78400
C 	C 	0.91948 0.17613 0.56092 0.35000
O 	O 	0.91056 0.81568 0.67318 -0.41600
C 	C 	0.74171 0.90307 0.64275 0.34300
O 	O 	0.97846 0.96857 0.60098 -0.53800
O 	O 	0.94239 0.14370 0.54800 -0.36500
O 	O 	0.78546 0.98962 0.62813 -0.33700
O 	O 	0.78020 0.86550 0.65065 -0.32700
O 	O 	0.88519 0.96633 0.73118 -0.35400
O 	O 	0.98026 0.93511 0.74216 -0.33500
O 	O 	0.94751 0.80403 0.52351 -0.38000
O 	O 	0.87251 0.74647 0.58460 -0.32200
C 	C 	0.90512 0.89573 0.84247 -0.01000
C 	C 	0.92376 0.91416 0.88651 0.01000
H 	H 	0.83499 0.84343 0.82761 0.08600
C 	C 	0.85071 0.85865 0.91270 0.11900
N 	N 	0.79215 0.81409 0.93372 -0.08200
C 	C 	0.99334 0.93106 0.39687 0.04500
C 	C 	0.99569 0.92949 0.35272 0.05200
H 	H 	0.94851 0.86936 0.42077 0.06000
C 	C 	0.93917 0.84569 0.34098 0.13000
N 	N 	0.89411 0.77844 0.33168 -0.06100
C 	C 	0.19534 0.31745 0.72365 0.36000
C 	C 	0.21012 0.39090 0.72494 -0.11600
C 	C 	0.19790 0.44924 0.68005 -0.05800
H 	H 	0.23573 0.40492 0.76092 0.11700
F 	F 	0.20852 0.26250 0.76766 -0.42700
C 	C 	0.54117 0.73251 0.70596 -0.10700
C 	C 	0.47580 0.75015 0.67145 -0.05400
C 	C 	0.49809 0.81838 0.62740 0.33700
C 	C 	0.58401 0.86650 0.61716 -0.07100
C 	C 	0.64816 0.84671 0.65091 -0.11800
C 	C 	0.62680 0.78022 0.69573 0.35900
F 	F 	0.68991 0.76320 0.72989 -0.43000
H 	H 	0.52422 0.67972 0.74003 0.11900
H 	H 	0.60063 0.91890 0.58293 0.14200
F 	F 	0.43514 0.83579 0.59365 -0.39800
C 	C 	0.22296 0.78221 0.71684 -0.06900
C 	C 	0.21685 0.66471 0.71586 -0.05100
C 	C 	0.26895 0.75077 0.72144 0.33200
F 	F 	0.36329 0.80478 0.72966 -0.38800
C 	C 	0.19766 0.44761 0.17766 -0.05700
C 	C 	0.62074 0.77356 0.16168 -0.05900
C 	C 	0.69004 0.79280 0.20633 -0.13000
C 	C 	0.66677 0.77104 0.24976 0.37400
C 	C 	0.57625 0.73419 0.24776 -0.10500
C 	C 	0.50770 0.71709 0.20281 -0.04700
C 	C 	0.53022 0.73681 0.15969 0.32600
F 	F 	0.46403 0.72002 0.11591 -0.40900
H 	H 	0.63817 0.79136 0.12778 0.11200
H 	H 	0.55880 0.71692 0.28153 0.13200
F 	F 	0.73298 0.78883 0.29340 -0.42100
C 	C 	0.25104 0.67919 0.21870 -0.04900
C 	C 	0.30954 0.76866 0.22076 0.32900
C 	C 	0.27094 0.80790 0.21529 -0.06900
H 	H 	0.31498 0.87847 0.21177 0.13600
F 	F 	0.40278 0.81862 0.22603 -0.39700
C 	C 	0.91814 0.30751 0.51611 -0.06400
C 	C 	0.87082 0.21676 0.52293 -0.13300
C 	C 	0.77297 0.16248 0.51108 0.35400
C 	C 	0.72481 0.19375 0.50352 -0.11800
C 	C 	0.77418 0.28035 0.50682 -0.05200
C 	C 	0.87077 0.33917 0.50921 0.32100
F 	F 	0.91948 0.42580 0.50669 -0.39600
H 	H 	0.99337 0.35156 0.52209 0.11500
H 	H 	0.64965 0.14910 0.49777 0.11500
F 	F 	0.72506 0.07621 0.51312 -0.44600
C 	C 	0.79886 0.50338 0.57893 -0.10500
C 	C 	0.77953 0.49651 0.53112 -0.05300
C 	C 	0.78394 0.56549 0.48873 0.33000
C 	C 	0.80699 0.64016 0.49406 -0.07100
C 	C 	0.82866 0.64820 0.54204 -0.12200
C 	C 	0.82178 0.57801 0.58431 0.36200
F 	F 	0.83952 0.58291 0.63079 -0.39700
H 	H 	0.79267 0.44923 0.61174 0.12300
H 	H 	0.81165 0.69358 0.46104 0.11300
F 	F 	0.76265 0.55881 0.44205 -0.40000
C 	C 	0.35596 0.16051 0.53124 -0.08000
C 	C 	0.34588 0.09453 0.57636 -0.12000
C 	C 	0.41286 0.07694 0.60150 0.34900
C 	C 	0.49023 0.12662 0.58219 -0.10800
C 	C 	0.50186 0.19469 0.53797 -0.06700
C 	C 	0.43274 0.20946 0.51172 0.32400
F 	F 	0.44197 0.27373 0.46819 -0.41200
H 	H 	0.30317 0.17256 0.51071 0.09600
H 	H 	0.54352 0.11521 0.60298 0.11000
F 	F 	0.40374 0.01276 0.64508 -0.42900
C 	C 	0.78182 0.22158 0.07114 -0.11500
C 	C 	0.75547 0.25576 0.01987 -0.06200
C 	C 	0.75574 0.23459 0.98374 0.33100
C 	C 	0.78129 0.17842 0.99929 -0.04700
C 	C 	0.80343 0.14078 0.05087 -0.14000
C 	C 	0.80292 0.16271 0.08671 0.36700
F 	F 	0.82071 0.12528 0.13674 -0.48800
H 	H 	0.78083 0.23678 0.09915 0.11400
H 	H 	0.78090 0.16215 0.97128 0.10700
F 	F 	0.72986 0.26700 0.93379 -0.40700
C 	C 	0.87261 0.55222 0.03780 -0.11500
C 	C 	0.77760 0.48582 0.03649 -0.05100
C 	C 	0.73150 0.49227 0.05506 0.32000
C 	C 	0.77724 0.56943 0.06845 -0.06300
C 	C 	0.86984 0.63916 0.06520 -0.11900
C 	C 	0.91900 0.62774 0.05289 0.36300
H 	H 	0.90992 0.54691 0.02546 0.12100
H 	H 	0.73950 0.57619 0.07940 0.11100
F 	F 	0.64260 0.42411 0.05998 -0.41600
C 	C 	0.34555 0.18758 0.00184 -0.11500
C 	C 	0.34555 0.13410 0.05128 -0.09900
C 	C 	0.42036 0.12752 0.07915 0.34300
C 	C 	0.49084 0.16890 0.05679 -0.09100
C 	C 	0.49108 0.22225 0.00739 -0.09200
C 	C 	0.41819 0.23177 0.97999 0.36600
F 	F 	0.41841 0.28463 0.93249 -0.41400
H 	H 	0.28740 0.19197 0.97965 0.11300
H 	H 	0.54843 0.16361 0.07888 0.10900
F 	F 	0.42312 0.07857 0.12764 -0.43000
