data_crystal

_cell_length_a 26.20976
_cell_length_b 26.34446
_cell_length_c 34.70542
_cell_angle_alpha 95.51519
_cell_angle_beta  95.51467
_cell_angle_gamma 125.84990

_symmetry_space_group_name_	'P 1'
_symmetry_space_group_name_H-M	'P 1'

loop_
_symmetry_equiv_pos_as_xyz
  x,y,z

loop_
_atom_site_label
_atom_site_type_symbol
_atom_site_fract_x
_atom_site_fract_y
_atom_site_fract_z
_atom_site_charge
C 	C 	0.93194 0.99160 0.98385 0.14500
N 	N 	0.99466 0.02456 0.98070 -0.12900
C 	C 	0.02103 0.99333 0.97547 0.14800
N 	N 	0.98449 0.92923 0.97322 -0.14800
C 	C 	0.92177 0.89611 0.97602 0.14400
N 	N 	0.89549 0.92735 0.98123 -0.13500
C 	C 	0.96364 0.03260 0.46716 0.14100
N 	N 	0.93354 0.97055 0.47051 -0.13600
C 	C 	0.96606 0.94499 0.46971 0.14400
N 	N 	0.02808 0.98130 0.46507 -0.12600
C 	C 	0.05816 0.04323 0.46207 0.14900
N 	N 	0.02600 0.06885 0.46329 -0.14300
Cu	Cu	0.60714 0.20933 0.00443 0.92900
Cu	Cu	0.65604 0.19943 0.92264 0.87000
Cu	Cu	0.63607 0.29788 0.94505 0.89700
Cu	Cu	0.60726 0.32895 0.02155 0.89500
C 	C 	0.63228 0.27246 0.08369 0.28300
O 	O 	0.51371 0.17220 0.00365 -0.34800
C 	C 	0.62565 0.24776 0.86223 0.27900
O 	O 	0.65722 0.30671 0.00108 -0.63900
O 	O 	0.59600 0.20610 0.94675 -0.63800
O 	O 	0.64653 0.16358 0.00730 -0.35800
O 	O 	0.71624 0.22296 0.96844 -0.44500
O 	O 	0.60005 0.29333 0.07058 -0.38200
O 	O 	0.68102 0.38855 0.94662 -0.37300
C 	C 	0.68198 0.42813 0.97370 0.31400
C 	C 	0.48745 0.19634 0.98662 0.30100
O 	O 	0.52410 0.25355 0.97823 -0.39400
O 	O 	0.64214 0.40731 0.99879 -0.39500
O 	O 	0.63149 0.22875 0.06088 -0.35300
C 	C 	0.69959 0.18486 0.99395 0.31200
O 	O 	0.62460 0.28853 0.88702 -0.37000
O 	O 	0.61676 0.19681 0.87272 -0.41500
H 	H 	0.70367 0.33610 0.01233 0.16400
H 	H 	0.55125 0.17650 0.93209 0.17800
Cu	Cu	0.75181 0.36348 0.45763 0.92400
Cu	Cu	0.76966 0.32530 0.54287 0.88500
Cu	Cu	0.65683 0.34026 0.51136 0.91200
Cu	Cu	0.64343 0.38055 0.43580 0.89700
C 	C 	0.70445 0.35454 0.37665 0.28300
O 	O 	0.79986 0.45924 0.46031 -0.36000
C 	C 	0.67710 0.31359 0.58538 0.28300
O 	O 	0.65434 0.32309 0.45597 -0.63900
O 	O 	0.74873 0.37364 0.51487 -0.62700
O 	O 	0.78104 0.30755 0.45388 -0.37000
O 	O 	0.83652 0.34402 0.51677 -0.41500
O 	O 	0.68579 0.38897 0.38954 -0.38100
O 	O 	0.56672 0.30228 0.50576 -0.37700
C 	C 	0.53350 0.30698 0.47710 0.30800
C 	C 	0.77845 0.48939 0.47607 0.30100
O 	O 	0.71936 0.45662 0.48222 -0.38300
O 	O 	0.56213 0.35032 0.45469 -0.37800
O 	O 	0.73746 0.34363 0.40107 -0.35500
C 	C 	0.82186 0.31127 0.48148 0.31500
O 	O 	0.66124 0.34565 0.56781 -0.37200
O 	O 	0.69265 0.28169 0.56479 -0.41900
H 	H 	0.62207 0.27781 0.44313 0.16200
H 	H 	0.77775 0.41882 0.52838 0.16100
C 	C 	0.63170 0.25647 0.82108 -0.07000
C 	C 	0.66111 0.23502 0.80041 0.00200
C 	C 	0.66900 0.24436 0.76192 -0.05100
C 	C 	0.64989 0.27794 0.74385 0.00600
C 	C 	0.61528 0.29471 0.76338 0.01200
C 	C 	0.60805 0.28564 0.80236 -0.01400
C 	C 	0.58637 0.31815 0.74330 -0.03800
C 	C 	0.59075 0.32423 0.70396 -0.03700
C 	C 	0.62771 0.31109 0.68486 0.01000
C 	C 	0.66085 0.29162 0.70555 0.00800
C 	C 	0.70637 0.28949 0.68835 -0.05300
C 	C 	0.71171 0.29724 0.64940 0.00500
C 	C 	0.67392 0.30991 0.62739 -0.07800
C 	C 	0.63316 0.31857 0.64550 -0.01300
H 	H 	0.67770 0.21068 0.81417 0.02500
H 	H 	0.68701 0.22267 0.74578 0.04300
H 	H 	0.58305 0.30003 0.81772 0.05200
H 	H 	0.55904 0.33020 0.75787 0.04600
H 	H 	0.56630 0.34037 0.68855 0.04500
H 	H 	0.73978 0.28498 0.70546 0.04300
H 	H 	0.74614 0.29432 0.63645 0.02000
H 	H 	0.60554 0.33064 0.62904 0.05100
C 	C 	0.70343 0.34309 0.33419 -0.06600
C 	C 	0.67327 0.28105 0.31366 0.00300
C 	C 	0.66597 0.26891 0.27260 -0.04900
C 	C 	0.69146 0.31965 0.25150 0.00700
C 	C 	0.72103 0.38226 0.27251 0.01100
C 	C 	0.72819 0.39366 0.31370 -0.01500
C 	C 	0.73995 0.43221 0.25203 -0.03900
C 	C 	0.72685 0.42037 0.21100 -0.03900
C 	C 	0.69785 0.35906 0.18957 0.01000
C 	C 	0.68379 0.30903 0.20954 0.00700
C 	C 	0.66383 0.25052 0.18714 -0.04900
C 	C 	0.64859 0.23906 0.14596 0.00700
C 	C 	0.65590 0.28661 0.12650 -0.06700
C 	C 	0.68283 0.34720 0.14827 -0.01800
H 	H 	0.65287 0.24163 0.32933 0.03300
H 	H 	0.63714 0.21989 0.25745 0.04500
H 	H 	0.75131 0.44166 0.32972 0.04700
H 	H 	0.76285 0.48012 0.26802 0.04300
H 	H 	0.73944 0.45917 0.19577 0.04100
H 	H 	0.66269 0.21503 0.20109 0.04700
H 	H 	0.63060 0.19298 0.12927 0.05000
H 	H 	0.69135 0.38490 0.13307 0.03200
C 	C 	0.83725 0.65796 0.51225 -0.11800
C 	C 	0.86583 0.68719 0.48109 0.00900
C 	C 	0.87301 0.65347 0.45083 0.12200
C 	C 	0.84866 0.58986 0.45090 -0.03500
C 	C 	0.81657 0.55935 0.48086 -0.12400
C 	C 	0.81331 0.59455 0.51248 0.19100
C 	C 	0.88842 0.75321 0.48030 -0.00500
O 	O 	0.90460 0.68288 0.42152 -0.27000
H 	H 	0.85228 0.56351 0.42673 0.06300
O 	O 	0.78481 0.56636 0.54297 -0.29000
H 	H 	0.83290 0.68418 0.53608 0.07400
C 	C 	0.85400 0.76533 0.45400 0.13400
C 	C 	0.87802 0.82833 0.45185 -0.06500
C 	C 	0.93573 0.87941 0.47630 -0.05400
C 	C 	0.96776 0.86705 0.50442 0.16200
C 	C 	0.94444 0.80417 0.50598 -0.09500
O 	O 	0.79811 0.71575 0.42948 -0.28000
H 	H 	0.85276 0.83741 0.43040 0.07100
O 	O 	0.02290 0.91647 0.52961 -0.27300
H 	H 	0.97032 0.79506 0.52691 0.07300
H 	H 	0.81982 0.57409 0.56265 0.14300
H 	H 	0.76366 0.70516 0.44440 0.14900
H 	H 	0.00854 0.92518 0.55312 0.14900
H 	H 	0.87081 0.67363 0.40006 0.15700
C 	C 	0.85753 0.08220 0.44160 -0.09700
C 	C 	0.88536 0.13604 0.47129 -0.00700
C 	C 	0.93450 0.15166 0.50171 0.13600
C 	C 	0.95661 0.11454 0.50173 -0.06500
C 	C 	0.93088 0.06237 0.47112 -0.05800
C 	C 	0.88042 0.04558 0.44127 0.16300
C 	C 	0.86356 0.17649 0.47041 0.01100
O 	O 	0.96079 0.20310 0.53154 -0.27700
H 	H 	0.99536 0.12760 0.52487 0.06500
O 	O 	0.85379 0.99382 0.41163 -0.28000
H 	H 	0.81905 0.06947 0.41838 0.06900
C 	C 	0.88822 0.22410 0.44721 0.11100
C 	C 	0.87357 0.26753 0.45037 -0.02400
C 	C 	0.83435 0.26363 0.47654 -0.13600
C 	C 	0.80743 0.21422 0.49839 0.19800
C 	C 	0.82237 0.17114 0.49540 -0.11500
O 	O 	0.92898 0.23010 0.42287 -0.27200
H 	H 	0.89374 0.30494 0.43309 0.05600
O 	O 	0.76789 0.20905 0.52349 -0.33200
H 	H 	0.80298 0.13435 0.51314 0.08000
H 	H 	0.87898 0.01075 0.39049 0.15000
H 	H 	0.90093 0.20314 0.39712 0.14500
H 	H 	0.72400 0.18087 0.50737 0.14000
H 	H 	0.99715 0.23975 0.52229 0.15400
C 	C 	0.21812 0.10772 0.43344 -0.09600
C 	C 	0.25998 0.15874 0.46497 -0.00500
C 	C 	0.23518 0.17297 0.49485 0.13600
C 	C 	0.16893 0.13618 0.49305 -0.06200
C 	C 	0.12716 0.08419 0.46206 -0.05800
C 	C 	0.15187 0.07038 0.43192 0.16600
C 	C 	0.32978 0.19622 0.46718 0.01000
O 	O 	0.27565 0.22312 0.52566 -0.27700
H 	H 	0.15008 0.14714 0.51626 0.06700
O 	O 	0.11142 0.01970 0.40141 -0.27700
H 	H 	0.23702 0.09675 0.41027 0.06900
C 	C 	0.36176 0.16957 0.47635 0.11300
C 	C 	0.42832 0.20620 0.47973 -0.03300
C 	C 	0.46350 0.26952 0.47399 -0.12300
C 	C 	0.43142 0.29645 0.46537 0.19500
C 	C 	0.36472 0.25938 0.46136 -0.11300
O 	O 	0.32829 0.10850 0.48343 -0.27000
H 	H 	0.45258 0.18521 0.48660 0.05500
O 	O 	0.46512 0.35894 0.46105 -0.28500
H 	H 	0.34023 0.28012 0.45441 0.08200
H 	H 	0.10063 0.03730 0.38082 0.15000
H 	H 	0.31677 0.08114 0.45759 0.14600
H 	H 	0.47583 0.38359 0.48782 0.15500
H 	H 	0.28567 0.20486 0.54615 0.15400
C 	C 	0.80457 0.72977 0.99605 -0.09700
C 	C 	0.81504 0.69437 0.96966 -0.00600
C 	C 	0.85812 0.72473 0.94405 0.13500
C 	C 	0.89080 0.79015 0.94520 -0.06500
C 	C 	0.88220 0.82619 0.97257 -0.05900
C 	C 	0.83870 0.79561 0.99809 0.16400
C 	C 	0.78265 0.62602 0.96996 0.01100
O 	O 	0.86794 0.69039 0.91765 -0.27600
H 	H 	0.92359 0.81308 0.92515 0.06600
O 	O 	0.82980 0.82995 0.02518 -0.27900
H 	H 	0.77104 0.70646 0.01564 0.06800
C 	C 	0.80022 0.60681 0.00191 0.11200
C 	C 	0.76841 0.54188 0.00232 -0.03300
C 	C 	0.71913 0.49580 0.97100 -0.12500
C 	C 	0.70214 0.51496 0.93876 0.19700
C 	C 	0.73403 0.57993 0.93830 -0.11300
O 	O 	0.84968 0.65146 0.03219 -0.27500
H 	H 	0.78171 0.52733 0.02718 0.04500
O 	O 	0.65456 0.47029 0.90767 -0.28400
H 	H 	0.72058 0.59448 0.91352 0.08200
H 	H 	0.86176 0.84362 0.04926 0.14900
H 	H 	0.82929 0.65933 0.05219 0.14300
H 	H 	0.61446 0.46141 0.91443 0.15100
H 	H 	0.90395 0.69231 0.93177 0.15200
C 	C 	0.87393 0.09162 0.96947 -0.09600
C 	C 	0.84141 0.08237 0.00099 -0.00800
C 	C 	0.84142 0.04581 0.02798 0.13700
C 	C 	0.87196 0.01704 0.02255 -0.06500
C 	C 	0.90360 0.02542 0.99066 -0.05400
C 	C 	0.90486 0.06324 0.96418 0.16300
C 	C 	0.80470 0.10834 0.00444 0.01000
O 	O 	0.81003 0.03660 0.05901 -0.27400
H 	H 	0.87081 0.98799 0.04306 0.07200
O 	O 	0.93596 0.07225 0.93302 -0.27700
H 	H 	0.87414 0.11981 0.94861 0.06500
C 	C 	0.83670 0.17454 0.01448 0.11100
C 	C 	0.80159 0.19911 0.01349 -0.03000
C 	C 	0.73457 0.15806 0.00228 -0.13200
C 	C 	0.70241 0.09163 0.99386 0.18900
C 	C 	0.73752 0.06707 0.99519 -0.11200
O 	O 	0.90217 0.21519 0.02577 -0.27000
H 	H 	0.82663 0.25024 0.02040 0.05300
O 	O 	0.63680 0.05071 0.98360 -0.28100
H 	H 	0.71258 0.01600 0.98781 0.08100
H 	H 	0.90323 0.03706 0.91104 0.14900
H 	H 	0.91872 0.22815 0.00122 0.14400
H 	H 	0.62718 0.04456 0.95446 0.13100
H 	H 	0.84241 0.07220 0.08090 0.15400
C 	C 	0.31705 0.10047 0.00478 -0.11800
C 	C 	0.28688 0.11026 0.97397 0.00800
C 	C 	0.32161 0.14491 0.94593 0.12300
C 	C 	0.38649 0.17061 0.94932 -0.03700
C 	C 	0.41736 0.16240 0.98078 -0.12200
C 	C 	0.38215 0.12697 0.00863 0.19100
C 	C 	0.21896 0.08447 0.97141 -0.00400
O 	O 	0.29300 0.15608 0.91619 -0.27000
H 	H 	0.41307 0.19783 0.92781 0.05800
O 	O 	0.41136 0.11884 0.03984 -0.28000
H 	H 	0.29025 0.07325 0.02624 0.07400
C 	C 	0.17092 0.02919 0.94379 0.13400
C 	C 	0.10633 0.00210 0.94366 -0.06300
C 	C 	0.08897 0.02848 0.97186 -0.05700
C 	C 	0.13719 0.08456 0.99907 0.16500
C 	C 	0.20188 0.11269 0.99841 -0.09700
O 	O 	0.18701 0.00151 0.91696 -0.27900
H 	H 	0.06960 0.95939 0.92233 0.06700
O 	O 	0.12127 0.11140 0.02665 -0.27400
H 	H 	0.23877 0.15546 0.01964 0.07300
H 	H 	0.42738 0.15534 0.06128 0.15200
H 	H 	0.18867 0.97045 0.92997 0.14800
H 	H 	0.11858 0.09132 0.04988 0.14900
H 	H 	0.27638 0.12087 0.89365 0.15800
