data_crystal

_cell_length_a 27.85109
_cell_length_b 28.79904
_cell_length_c 30.87849
_cell_angle_alpha 61.04077
_cell_angle_beta  118.59644
_cell_angle_gamma 133.20750

_symmetry_space_group_name_	'P 1'
_symmetry_space_group_name_H-M	'P 1'

loop_
_symmetry_equiv_pos_as_xyz
  x,y,z

loop_
_atom_site_label
_atom_site_type_symbol
_atom_site_fract_x
_atom_site_fract_y
_atom_site_fract_z
_atom_site_charge
C 	C 	0.71946 0.31083 0.02515 0.28600
N 	N 	0.65132 0.27736 0.01572 -0.10200
C 	C 	0.62617 0.29910 0.02348 0.29000
N 	N 	0.66909 0.35421 0.04046 -0.11400
C 	C 	0.73689 0.38742 0.05051 0.28700
N 	N 	0.76235 0.36598 0.04269 -0.10000
C 	C 	0.71948 0.31082 0.52518 0.28600
N 	N 	0.65135 0.27736 0.51576 -0.09900
C 	C 	0.62620 0.29909 0.52352 0.28800
N 	N 	0.66912 0.35421 0.54051 -0.11100
C 	C 	0.73693 0.38741 0.55055 0.28900
N 	N 	0.76238 0.36597 0.54273 -0.09900
C 	C 	0.29455 0.65546 0.27062 0.28600
N 	N 	0.36227 0.68823 0.27799 -0.09800
C 	C 	0.38495 0.66232 0.27254 0.28700
N 	N 	0.34005 0.60406 0.25973 -0.11100
C 	C 	0.27275 0.57153 0.25177 0.29000
N 	N 	0.24974 0.59701 0.25734 -0.09900
C 	C 	0.29456 0.65545 0.77062 0.28600
N 	N 	0.24975 0.59701 0.75734 -0.09900
C 	C 	0.27276 0.57153 0.75176 0.29100
N 	N 	0.34006 0.60405 0.75974 -0.11100
C 	C 	0.38496 0.66231 0.77255 0.28700
N 	N 	0.36228 0.68822 0.77800 -0.09700
Co	Co	0.09276 0.98087 0.16972 1.20000
Co	Co	0.91127 0.97228 0.12474 1.19700
Co	Co	0.03557 0.02363 0.20559 1.19900
Co	Co	0.96942 0.93205 0.08794 1.19200
C 	C 	0.10701 0.87027 0.21063 0.40800
Co	Co	0.07764 0.91382 0.09844 1.18900
Co	Co	0.91851 0.03117 0.19627 1.18800
C 	C 	0.02080 0.97030 0.99774 0.34400
O 	O 	0.01327 0.10261 0.23020 -0.36600
O 	O 	0.96005 0.01118 0.17192 -0.75000
C 	C 	0.06522 0.14402 0.20926 0.41900
O 	O 	0.11345 0.02139 0.22039 -0.39300
O 	O 	0.88906 0.92902 0.07568 -0.40200
C 	C 	0.88592 0.07724 0.08398 0.41300
O 	O 	0.01327 0.99940 0.13521 -0.54400
C 	C 	0.97408 0.96970 0.29383 0.30700
C 	C 	0.20320 0.04254 0.12236 0.42400
C 	C 	0.93136 0.80495 0.09404 0.42200
O 	O 	0.08695 0.12259 0.19869 -0.33300
O 	O 	0.17884 0.98230 0.12737 -0.35100
O 	O 	0.18072 0.05377 0.14273 -0.32900
O 	O 	0.92456 0.09674 0.12647 -0.33600
O 	O 	0.87974 0.03303 0.07390 -0.32200
O 	O 	0.91766 0.96309 0.26419 -0.33900
O 	O 	0.01056 0.96979 0.27729 -0.32700
O 	O 	0.97883 0.84175 0.06927 -0.38300
O 	O 	0.92393 0.83196 0.11253 -0.36100
O 	O 	0.04733 0.94984 0.11783 -0.74000
C 	C 	0.80126 0.89995 0.17428 0.42000
O 	O 	0.81996 0.95895 0.16624 -0.35700
O 	O 	0.83747 0.89271 0.16555 -0.35400
O 	O 	0.07190 0.84937 0.16888 -0.33300
O 	O 	0.09632 0.90170 0.22118 -0.33400
O 	O 	0.07792 0.97974 0.02913 -0.34100
O 	O 	0.97704 0.96241 0.01250 -0.35100
Co	Co	0.09276 0.98086 0.66972 1.20000
Co	Co	0.91127 0.97228 0.62475 1.19700
Co	Co	0.03557 0.02363 0.70560 1.19900
Co	Co	0.96942 0.93205 0.58794 1.19200
C 	C 	0.10701 0.87026 0.71062 0.40800
Co	Co	0.07764 0.91382 0.59844 1.18900
Co	Co	0.91852 0.03117 0.69627 1.18800
C 	C 	0.02080 0.97029 0.49774 0.32800
O 	O 	0.01327 0.10261 0.73020 -0.36600
O 	O 	0.96005 0.01117 0.67193 -0.74900
C 	C 	0.06522 0.14401 0.70926 0.41900
O 	O 	0.11345 0.02138 0.72039 -0.39200
O 	O 	0.88906 0.92901 0.57568 -0.40100
C 	C 	0.88592 0.07723 0.58398 0.41200
O 	O 	0.01327 0.99939 0.63522 -0.54400
C 	C 	0.97409 0.96970 0.79383 0.30700
C 	C 	0.20320 0.04254 0.62236 0.42400
C 	C 	0.93136 0.80495 0.59404 0.42200
O 	O 	0.08695 0.12259 0.69869 -0.33300
O 	O 	0.17884 0.98230 0.62737 -0.35100
O 	O 	0.18072 0.05376 0.64273 -0.32800
O 	O 	0.92456 0.09673 0.62647 -0.33500
O 	O 	0.87974 0.03302 0.57391 -0.32000
O 	O 	0.91766 0.96308 0.76420 -0.33900
O 	O 	0.01056 0.96979 0.77729 -0.32700
O 	O 	0.97883 0.84174 0.56927 -0.38100
O 	O 	0.92394 0.83195 0.61253 -0.36000
O 	O 	0.04733 0.94983 0.61784 -0.74000
C 	C 	0.80126 0.89995 0.67429 0.42000
O 	O 	0.81997 0.95894 0.66624 -0.35700
O 	O 	0.83748 0.89270 0.66556 -0.35400
O 	O 	0.07190 0.84936 0.66888 -0.33300
O 	O 	0.09633 0.90170 0.72119 -0.33400
O 	O 	0.07792 0.97974 0.52913 -0.33300
O 	O 	0.97704 0.96241 0.51250 -0.34200
C 	C 	0.00725 0.97215 0.94415 -0.05200
C 	C 	0.06041 0.01880 0.91864 -0.04500
C 	C 	0.05182 0.01501 0.87136 0.20600
C 	C 	0.98941 0.96461 0.84864 -0.08400
C 	C 	0.93671 0.91726 0.87462 -0.02900
C 	C 	0.94519 0.92112 0.92180 0.17000
H 	H 	0.10864 0.05796 0.93553 0.14900
O 	O 	0.10334 0.06279 0.84626 -0.22900
H 	H 	0.88848 0.87814 0.85773 0.14500
O 	O 	0.89373 0.87317 0.94695 -0.21300
H 	H 	0.86589 0.88887 0.93482 0.20400
H 	H 	0.13035 0.04637 0.85780 0.20400
C 	C 	0.00725 0.97215 0.44415 -0.04800
C 	C 	0.06040 0.01880 0.41864 -0.04800
C 	C 	0.05182 0.01501 0.37136 0.20600
C 	C 	0.98940 0.96461 0.34864 -0.08600
C 	C 	0.93671 0.91727 0.37462 -0.02900
C 	C 	0.94518 0.92112 0.42180 0.16700
H 	H 	0.10864 0.05795 0.43553 0.14800
O 	O 	0.10334 0.06279 0.34626 -0.22900
H 	H 	0.88847 0.87815 0.35772 0.14400
O 	O 	0.89372 0.87317 0.44695 -0.21500
H 	H 	0.86589 0.88887 0.43482 0.20200
H 	H 	0.13035 0.04637 0.35780 0.20300
C 	C 	0.10225 0.30891 0.66892 0.24600
C 	C 	0.15099 0.33376 0.71174 0.01100
C 	C 	0.18003 0.30100 0.74940 0.24000
C 	C 	0.15666 0.24129 0.74612 0.33100
C 	C 	0.10493 0.21446 0.70478 -0.20100
C 	C 	0.08055 0.25037 0.66495 0.32500
C 	C 	0.17193 0.39427 0.71700 0.00100
F 	F 	0.22974 0.32628 0.78971 -0.30400
F 	F 	0.03351 0.22698 0.62336 -0.33800
C 	C 	0.15912 0.39202 0.75711 0.25800
C 	C 	0.18611 0.45039 0.76558 0.31200
C 	C 	0.22538 0.51123 0.73367 -0.13300
C 	C 	0.23192 0.51268 0.69053 0.31000
C 	C 	0.20662 0.45469 0.68283 0.25900
F 	F 	0.12247 0.33352 0.78882 -0.31100
F 	F 	0.26714 0.57102 0.65806 -0.32000
F 	F 	0.17783 0.44807 0.80666 -0.32000
F 	F 	0.21839 0.45753 0.64342 -0.29800
F 	F 	0.07445 0.34048 0.63186 -0.29200
F 	F 	0.18194 0.20793 0.78429 -0.34500
C 	C 	0.54313 0.69108 0.78486 0.25700
C 	C 	0.57531 0.75398 0.75233 -0.00300
C 	C 	0.55245 0.79207 0.73617 0.25500
C 	C 	0.49322 0.76457 0.74745 0.31000
C 	C 	0.45745 0.69931 0.77610 -0.13200
C 	C 	0.48582 0.66480 0.79802 0.30700
C 	C 	0.62981 0.77823 0.73240 0.01000
F 	F 	0.58597 0.85472 0.70767 -0.31000
F 	F 	0.45473 0.60362 0.82910 -0.32000
C 	C 	0.62144 0.79304 0.67980 0.24200
C 	C 	0.67653 0.82583 0.66028 0.33600
C 	C 	0.73984 0.84265 0.69326 -0.20300
C 	C 	0.74508 0.81877 0.74598 0.32100
C 	C 	0.69119 0.78895 0.76560 0.23500
F 	F 	0.56076 0.77822 0.64751 -0.29800
F 	F 	0.80401 0.82853 0.77823 -0.37700
F 	F 	0.66978 0.84569 0.60915 -0.32500
F 	F 	0.69965 0.77332 0.81663 -0.31600
F 	F 	0.56530 0.65411 0.80160 -0.29800
F 	F 	0.46823 0.79975 0.72764 -0.32200
C 	C 	0.27544 0.74031 0.81818 0.26300
C 	C 	0.22505 0.74582 0.77826 0.00200
C 	C 	0.19656 0.72039 0.73641 0.25500
C 	C 	0.21869 0.69032 0.73418 0.31000
C 	C 	0.26958 0.68526 0.77386 -0.12900
C 	C 	0.29763 0.71015 0.81603 0.31200
C 	C 	0.20386 0.78069 0.77897 0.01200
F 	F 	0.14826 0.72596 0.69739 -0.32100
F 	F 	0.34586 0.70454 0.85512 -0.31800
C 	C 	0.24296 0.84961 0.76374 0.24400
C 	C 	0.21463 0.88179 0.75028 0.31500
C 	C 	0.14641 0.84510 0.75019 -0.18800
C 	C 	0.11176 0.77754 0.77375 0.33700
C 	C 	0.13987 0.74514 0.78726 0.24800
F 	F 	0.30646 0.88502 0.75836 -0.30300
F 	F 	0.04839 0.74236 0.77923 -0.30700
F 	F 	0.25107 0.94802 0.73199 -0.33900
F 	F 	0.10323 0.67885 0.80523 -0.29300
F 	F 	0.30303 0.76432 0.85895 -0.29500
F 	F 	0.19202 0.66778 0.69275 -0.32400
C 	C 	0.18003 0.30100 0.24941 0.24000
C 	C 	0.15099 0.33376 0.21175 0.01000
C 	C 	0.10225 0.30891 0.16893 0.24500
C 	C 	0.08055 0.25037 0.16496 0.32400
C 	C 	0.10494 0.21446 0.20479 -0.20100
C 	C 	0.15667 0.24129 0.24613 0.33100
C 	C 	0.17194 0.39427 0.21702 0.00100
F 	F 	0.07445 0.34048 0.13187 -0.29300
F 	F 	0.18194 0.20793 0.28430 -0.34500
C 	C 	0.20662 0.45469 0.18284 0.25800
C 	C 	0.23191 0.51268 0.19055 0.31000
C 	C 	0.22536 0.51122 0.23368 -0.13300
C 	C 	0.18610 0.45038 0.26560 0.31200
C 	C 	0.15911 0.39202 0.25712 0.25800
F 	F 	0.21840 0.45753 0.14344 -0.29900
F 	F 	0.17781 0.44806 0.30667 -0.32100
F 	F 	0.26713 0.57102 0.15807 -0.32100
F 	F 	0.12246 0.33351 0.28882 -0.31200
F 	F 	0.22975 0.32628 0.28972 -0.30500
F 	F 	0.03352 0.22698 0.12337 -0.33800
C 	C 	0.55244 0.79209 0.23614 0.25400
C 	C 	0.57528 0.75398 0.25230 -0.00300
C 	C 	0.54311 0.69109 0.28483 0.25700
C 	C 	0.48579 0.66482 0.29798 0.30600
C 	C 	0.45744 0.69933 0.27608 -0.13300
C 	C 	0.49321 0.76459 0.24742 0.31000
C 	C 	0.62979 0.77824 0.23238 0.01000
F 	F 	0.56526 0.65411 0.30157 -0.29900
F 	F 	0.46823 0.79978 0.22761 -0.32200
C 	C 	0.69117 0.78895 0.26558 0.23500
C 	C 	0.74507 0.81878 0.24596 0.32000
C 	C 	0.73983 0.84266 0.19324 -0.20300
C 	C 	0.67651 0.82583 0.16026 0.33600
C 	C 	0.62142 0.79304 0.17977 0.24200
F 	F 	0.69963 0.77333 0.31660 -0.31800
F 	F 	0.66978 0.84569 0.10913 -0.32600
F 	F 	0.80400 0.82854 0.27821 -0.37700
F 	F 	0.56074 0.77821 0.14748 -0.29900
F 	F 	0.58596 0.85473 0.20764 -0.31000
F 	F 	0.45471 0.60364 0.32907 -0.32100
C 	C 	0.13987 0.74515 0.28726 0.24800
C 	C 	0.20386 0.78070 0.27898 0.01200
C 	C 	0.24295 0.84962 0.26375 0.24400
C 	C 	0.21463 0.88180 0.25029 0.31500
C 	C 	0.14641 0.84511 0.25019 -0.18800
C 	C 	0.11175 0.77755 0.27375 0.33600
C 	C 	0.22504 0.74582 0.27827 0.00200
F 	F 	0.30646 0.88503 0.25838 -0.30400
F 	F 	0.04838 0.74236 0.27923 -0.30800
C 	C 	0.19655 0.72039 0.23642 0.25400
C 	C 	0.21868 0.69032 0.23419 0.31000
C 	C 	0.26957 0.68527 0.27387 -0.13000
C 	C 	0.29762 0.71015 0.31604 0.31100
C 	C 	0.27544 0.74032 0.31818 0.26300
F 	F 	0.14825 0.72596 0.19740 -0.32100
F 	F 	0.34586 0.70456 0.35512 -0.31900
F 	F 	0.19200 0.66778 0.19276 -0.32500
F 	F 	0.30304 0.76433 0.35896 -0.29700
F 	F 	0.10322 0.67885 0.30523 -0.29300
F 	F 	0.25107 0.94802 0.23200 -0.34000
C 	C 	0.81473 0.24374 0.55853 0.25400
C 	C 	0.78686 0.22023 0.51571 0.00200
C 	C 	0.74043 0.23069 0.47449 0.26200
C 	C 	0.72043 0.26270 0.47669 0.31200
C 	C 	0.74655 0.28426 0.52030 -0.13100
C 	C 	0.79465 0.27553 0.56087 0.31000
C 	C 	0.80346 0.18124 0.51564 0.01200
F 	F 	0.71399 0.20904 0.43262 -0.29700
F 	F 	0.81980 0.29534 0.60347 -0.32600
C 	C 	0.76021 0.11232 0.53005 0.24300
C 	C 	0.78404 0.07574 0.54468 0.32100
C 	C 	0.85158 0.10803 0.54600 -0.19100
C 	C 	0.89090 0.17586 0.52399 0.33600
C 	C 	0.86723 0.21255 0.50939 0.24800
F 	F 	0.69706 0.08117 0.53372 -0.30200
F 	F 	0.95443 0.20702 0.52112 -0.32200
F 	F 	0.74394 0.00959 0.56289 -0.33200
F 	F 	0.90804 0.27891 0.49262 -0.29700
F 	F 	0.85981 0.23398 0.59855 -0.32000
F 	F 	0.67541 0.27247 0.43659 -0.31900
C 	C 	0.84946 0.56313 0.55497 0.25600
C 	C 	0.82999 0.55631 0.59334 -0.00000
C 	C 	0.79231 0.49381 0.62447 0.25900
C 	C 	0.76968 0.43825 0.61468 0.30900
C 	C 	0.78200 0.44440 0.57236 -0.13400
C 	C 	0.82515 0.50728 0.54431 0.31000
C 	C 	0.84488 0.61383 0.59842 0.01000
F 	F 	0.77460 0.48662 0.66249 -0.29800
F 	F 	0.83950 0.51411 0.50443 -0.32400
C 	C 	0.81638 0.64614 0.55864 0.23900
C 	C 	0.83810 0.70593 0.56018 0.33000
C 	C 	0.88791 0.73346 0.60167 -0.20600
C 	C 	0.90912 0.69657 0.64433 0.32400
C 	C 	0.88926 0.63789 0.64223 0.24300
F 	F 	0.76974 0.62092 0.51760 -0.30600
F 	F 	0.95277 0.71997 0.68646 -0.34000
F 	F 	0.81436 0.73944 0.51978 -0.34900
F 	F 	0.91546 0.60603 0.68174 -0.29600
F 	F 	0.88936 0.62370 0.52659 -0.31900
F 	F 	0.73125 0.37779 0.64395 -0.32000
C 	C 	0.46334 0.26065 0.51243 0.25700
C 	C 	0.43190 0.19605 0.54263 -0.00200
C 	C 	0.45726 0.16098 0.55631 0.25500
C 	C 	0.51805 0.19276 0.54508 0.31100
C 	C 	0.55318 0.25954 0.51926 -0.13400
C 	C 	0.52277 0.29165 0.49968 0.30800
C 	C 	0.37563 0.16679 0.56296 0.01100
F 	F 	0.42467 0.09703 0.58262 -0.30800
F 	F 	0.55358 0.35466 0.47133 -0.32100
C 	C 	0.31319 0.15302 0.52997 0.23800
C 	C 	0.25827 0.11982 0.54976 0.32100
C 	C 	0.26432 0.09707 0.60256 -0.20200
C 	C 	0.32801 0.11541 0.63542 0.34000
C 	C 	0.38370 0.15075 0.61567 0.24200
F 	F 	0.30510 0.16966 0.47889 -0.31500
F 	F 	0.33508 0.09597 0.68656 -0.31600
F 	F 	0.19830 0.10727 0.51764 -0.37900
F 	F 	0.44497 0.16750 0.64777 -0.29800
F 	F 	0.43824 0.29449 0.49769 -0.30000
F 	F 	0.54520 0.16006 0.56248 -0.32100
C 	C 	0.86722 0.21256 0.00940 0.23800
C 	C 	0.80344 0.18125 0.01563 0.01600
C 	C 	0.76020 0.11232 0.03004 0.24000
C 	C 	0.78404 0.07575 0.04468 0.32200
C 	C 	0.85158 0.10804 0.04600 -0.19300
C 	C 	0.89089 0.17587 0.02399 0.33800
C 	C 	0.78685 0.22023 0.01570 -0.00900
F 	F 	0.69705 0.08117 0.03371 -0.30300
F 	F 	0.95443 0.20704 0.02113 -0.32500
C 	C 	0.74041 0.23070 0.97447 0.27100
C 	C 	0.72041 0.26271 0.97667 0.32000
C 	C 	0.74653 0.28427 0.02028 -0.13900
C 	C 	0.79463 0.27553 0.06085 0.31100
C 	C 	0.81471 0.24375 0.05852 0.25600
F 	F 	0.71399 0.20905 0.93260 -0.29500
F 	F 	0.81977 0.29535 0.10345 -0.32700
F 	F 	0.67540 0.27248 0.93656 -0.31700
F 	F 	0.85978 0.23398 0.09855 -0.32100
F 	F 	0.90803 0.27891 0.99262 -0.28800
F 	F 	0.74394 0.00959 0.06289 -0.33300
C 	C 	0.79229 0.49382 0.12444 0.25800
C 	C 	0.82996 0.55632 0.09331 -0.00100
C 	C 	0.84941 0.56314 0.05494 0.25600
C 	C 	0.82510 0.50728 0.04427 0.31000
C 	C 	0.78196 0.44440 0.07232 -0.13400
C 	C 	0.76965 0.43825 0.11465 0.30900
C 	C 	0.84485 0.61384 0.09840 0.00900
F 	F 	0.88931 0.62371 0.02655 -0.32000
F 	F 	0.73123 0.37780 0.14393 -0.32100
C 	C 	0.88925 0.63789 0.14220 0.24200
C 	C 	0.90912 0.69658 0.14431 0.32400
C 	C 	0.88789 0.73346 0.10166 -0.20600
C 	C 	0.83807 0.70593 0.06017 0.33000
C 	C 	0.81635 0.64614 0.05862 0.23800
F 	F 	0.91547 0.60604 0.18171 -0.29600
F 	F 	0.81433 0.73944 0.01978 -0.35200
F 	F 	0.95278 0.71998 0.18644 -0.34000
F 	F 	0.76970 0.62092 0.01760 -0.30800
F 	F 	0.77460 0.48663 0.16248 -0.29900
F 	F 	0.83944 0.51412 0.00438 -0.32600
C 	C 	0.46330 0.26065 0.01240 0.23600
C 	C 	0.43187 0.19605 0.04260 0.00400
C 	C 	0.45724 0.16098 0.05627 0.25000
C 	C 	0.51802 0.19276 0.04503 0.31600
C 	C 	0.55315 0.25955 0.01922 -0.14900
C 	C 	0.52273 0.29165 0.99965 0.33100
C 	C 	0.37561 0.16678 0.06294 0.00900
F 	F 	0.42464 0.09703 0.08258 -0.30800
F 	F 	0.55354 0.35466 0.97129 -0.32100
C 	C 	0.31317 0.15303 0.02996 0.23000
C 	C 	0.25826 0.11983 0.04975 0.32200
C 	C 	0.26431 0.09707 0.10255 -0.20400
C 	C 	0.32800 0.11541 0.13541 0.34000
C 	C 	0.38369 0.15075 0.11565 0.24200
F 	F 	0.30507 0.16966 0.97888 -0.30900
F 	F 	0.33508 0.09597 0.18655 -0.31600
F 	F 	0.19828 0.10729 0.01764 -0.38200
F 	F 	0.44496 0.16750 0.14774 -0.29800
F 	F 	0.43821 0.29449 0.99766 -0.29000
F 	F 	0.54517 0.16006 0.06244 -0.32300
