data_crystal

_cell_length_a 27.71284
_cell_length_b 28.06288
_cell_length_c 34.92450
_cell_angle_alpha 95.48083
_cell_angle_beta  95.47699
_cell_angle_gamma 125.64699

_symmetry_space_group_name_	'P 1'
_symmetry_space_group_name_H-M	'P 1'

loop_
_symmetry_equiv_pos_as_xyz
  x,y,z

loop_
_atom_site_label
_atom_site_type_symbol
_atom_site_fract_x
_atom_site_fract_y
_atom_site_fract_z
_atom_site_charge
C 	C 	0.94947 0.01881 0.98728 0.12400
N 	N 	0.91692 0.95892 0.98520 -0.13200
C 	C 	0.94344 0.93126 0.98003 0.13200
N 	N 	0.00256 0.96347 0.97696 -0.12800
C 	C 	0.03522 0.02336 0.97900 0.13200
N 	N 	0.00871 0.05113 0.98418 -0.13100
C 	C 	0.95973 0.00892 0.45556 0.12300
N 	N 	0.02028 0.04133 0.45699 -0.13200
C 	C 	0.04852 0.01518 0.46086 0.13300
N 	N 	0.01630 0.95662 0.46330 -0.12800
C 	C 	0.95580 0.92405 0.46190 0.13100
N 	N 	0.92735 0.95015 0.45803 -0.13100
Cu	Cu	0.62144 0.23902 0.00010 0.93000
Cu	Cu	0.66888 0.24159 0.91743 0.87500
Cu	Cu	0.65781 0.33506 0.95079 0.90100
Cu	Cu	0.63421 0.35591 0.02989 0.89900
C 	C 	0.64328 0.28284 0.08232 0.31100
O 	O 	0.53565 0.21177 0.00056 -0.35800
C 	C 	0.64500 0.30109 0.86563 0.30800
O 	O 	0.67626 0.33242 0.00464 -0.63900
O 	O 	0.61405 0.24698 0.94466 -0.63900
O 	O 	0.65275 0.19070 0.99566 -0.36100
O 	O 	0.72280 0.25234 0.96104 -0.43000
O 	O 	0.61900 0.31007 0.07322 -0.37900
O 	O 	0.70565 0.42114 0.95913 -0.36800
C 	C 	0.70085 0.45505 0.98493 0.31500
C 	C 	0.51628 0.24109 0.98688 0.30200
O 	O 	0.55511 0.29720 0.98397 -0.39100
O 	O 	0.67879 0.43756 0.01695 -0.38600
O 	O 	0.64198 0.24561 0.05532 -0.34100
C 	C 	0.70380 0.21206 0.98336 0.31500
O 	O 	0.64603 0.33612 0.89446 -0.36000
O 	O 	0.63568 0.25055 0.87060 -0.41000
H 	H 	0.71993 0.35567 0.01562 0.18000
H 	H 	0.57228 0.22353 0.92958 0.17800
Cu	Cu	0.75317 0.34805 0.45320 0.93000
Cu	Cu	0.75179 0.30189 0.53614 0.87900
Cu	Cu	0.65724 0.31393 0.50365 0.90000
Cu	Cu	0.63769 0.34092 0.42563 0.90000
C 	C 	0.70908 0.32983 0.37113 0.31000
O 	O 	0.78486 0.43416 0.45298 -0.34800
C 	C 	0.69264 0.32548 0.58852 0.30700
O 	O 	0.65885 0.29656 0.44950 -0.64000
O 	O 	0.74637 0.35612 0.50896 -0.63900
O 	O 	0.79940 0.31401 0.45646 -0.36400
O 	O 	0.73758 0.24694 0.49240 -0.43000
O 	O 	0.68135 0.35346 0.38092 -0.36500
O 	O 	0.57005 0.26738 0.49577 -0.37400
C 	C 	0.53518 0.26724 0.46714 0.31200
C 	C 	0.75681 0.45523 0.46653 0.30300
O 	O 	0.70077 0.41828 0.47119 -0.38800
O 	O 	0.55768 0.30361 0.44184 -0.38500
O 	O 	0.74433 0.32726 0.39775 -0.35100
C 	C 	0.77704 0.26380 0.46922 0.30900
O 	O 	0.65691 0.32500 0.56019 -0.36900
O 	O 	0.74408 0.33576 0.58305 -0.39700
H 	H 	0.63397 0.25353 0.43790 0.17100
H 	H 	0.77073 0.39752 0.52390 0.17900
C 	C 	0.67929 0.32352 0.62841 -0.09800
C 	C 	0.67846 0.28302 0.64984 0.14700
C 	C 	0.66907 0.28387 0.68844 -0.08300
C 	C 	0.65888 0.32368 0.70574 0.02300
C 	C 	0.65784 0.36294 0.68400 0.08300
C 	C 	0.66817 0.36279 0.64550 -0.00900
H 	H 	0.66929 0.25320 0.70499 0.08200
C 	C 	0.65108 0.32494 0.74699 0.02400
H 	H 	0.66817 0.39363 0.62904 0.06600
C 	C 	0.70091 0.36736 0.77655 -0.08300
C 	C 	0.69796 0.36227 0.81588 0.14300
C 	C 	0.64488 0.31401 0.82583 -0.09900
C 	C 	0.59380 0.27387 0.79647 -0.01000
C 	C 	0.59655 0.27937 0.75719 0.08200
H 	H 	0.74270 0.40300 0.76885 0.08400
H 	H 	0.55244 0.23739 0.80408 0.06200
Br	Br	0.64174 0.41648 0.70623 -0.20900
Br	Br	0.68683 0.22408 0.62628 -0.27100
Br	Br	0.76807 0.41967 0.85537 -0.24500
Br	Br	0.52581 0.22367 0.71776 -0.21100
C 	C 	0.65550 0.28049 0.12384 -0.09500
C 	C 	0.71113 0.29362 0.14092 0.14400
C 	C 	0.72388 0.29663 0.18126 -0.08400
C 	C 	0.68188 0.28726 0.20482 0.02300
C 	C 	0.62573 0.27266 0.18755 0.08600
C 	C 	0.61260 0.26873 0.14724 -0.01200
H 	H 	0.76718 0.30800 0.19448 0.08300
C 	C 	0.69925 0.29888 0.24785 0.02200
H 	H 	0.56942 0.25778 0.13418 0.06900
C 	C 	0.73215 0.35751 0.26871 -0.08500
C 	C 	0.73939 0.36852 0.30951 0.15000
C 	C 	0.71288 0.32043 0.32973 -0.09300
C 	C 	0.68441 0.26230 0.30919 -0.01400
C 	C 	0.67784 0.25136 0.26836 0.08800
H 	H 	0.75036 0.39438 0.25309 0.08100
H 	H 	0.66546 0.22534 0.32477 0.05900
Br	Br	0.56734 0.26038 0.21884 -0.21400
Br	Br	0.77166 0.31106 0.11022 -0.23700
Br	Br	0.78604 0.44955 0.33718 -0.22100
Br	Br	0.63797 0.17123 0.24099 -0.20900
C 	C 	0.86829 0.74804 0.46765 0.02000
C 	C 	0.88147 0.73249 0.50203 -0.04000
C 	C 	0.85949 0.67332 0.50259 -0.02600
C 	C 	0.82435 0.62948 0.46875 -0.00300
C 	C 	0.81029 0.64483 0.43460 -0.02400
C 	C 	0.83223 0.70397 0.43404 -0.03900
C 	C 	0.89651 0.80987 0.46578 0.00900
C 	C 	0.92214 0.86187 0.46403 -0.03000
C 	C 	0.80229 0.56864 0.46904 0.05400
C 	C 	0.78257 0.51721 0.46844 -0.09500
H 	H 	0.90956 0.76636 0.52809 0.05000
H 	H 	0.87024 0.66173 0.52918 0.04600
H 	H 	0.78283 0.61110 0.40839 0.05100
H 	H 	0.82209 0.71567 0.40731 0.05200
C 	C 	0.88285 0.09598 0.44752 0.02000
C 	C 	0.91892 0.15507 0.44152 -0.04100
C 	C 	0.89650 0.18869 0.44251 -0.02500
C 	C 	0.83788 0.16334 0.44944 -0.00600
C 	C 	0.80121 0.10371 0.45432 -0.02500
C 	C 	0.82366 0.07011 0.45338 -0.04100
C 	C 	0.90788 0.06324 0.44990 0.00600
C 	C 	0.93042 0.03735 0.45233 -0.03100
C 	C 	0.81716 0.19977 0.45486 0.05400
C 	C 	0.79933 0.22961 0.46063 -0.10700
H 	H 	0.96468 0.17534 0.43688 0.04900
H 	H 	0.92513 0.23474 0.43874 0.04600
H 	H 	0.75585 0.08380 0.45971 0.04500
H 	H 	0.79546 0.02444 0.45795 0.04900
C 	C 	0.35462 0.17382 0.46691 -0.00400
C 	C 	0.32639 0.20141 0.46064 -0.02400
C 	C 	0.26428 0.16970 0.45973 -0.03900
C 	C 	0.23018 0.11031 0.46508 0.02100
C 	C 	0.25846 0.08280 0.47150 -0.03900
C 	C 	0.32057 0.11451 0.47241 -0.02400
C 	C 	0.41834 0.20620 0.46723 0.05500
C 	C 	0.47171 0.23375 0.46730 -0.09700
C 	C 	0.16614 0.07739 0.46361 0.01000
C 	C 	0.11245 0.04934 0.46235 -0.03100
H 	H 	0.35247 0.24728 0.45637 0.04800
H 	H 	0.24270 0.19124 0.45476 0.05100
H 	H 	0.23234 0.03688 0.47567 0.05100
H 	H 	0.34212 0.09292 0.47727 0.04700
C 	C 	0.84730 0.75194 0.97638 0.02000
C 	C 	0.86588 0.72010 0.95802 -0.03900
C 	C 	0.83478 0.65919 0.95847 -0.02400
C 	C 	0.78500 0.62991 0.97727 -0.00300
C 	C 	0.76593 0.66157 0.99516 -0.02400
C 	C 	0.79702 0.72248 0.99472 -0.03800
C 	C 	0.88088 0.81513 0.97741 0.01000
C 	C 	0.90930 0.86813 0.97851 -0.03100
C 	C 	0.75492 0.56798 0.97947 0.05600
C 	C 	0.73006 0.51630 0.98173 -0.09300
H 	H 	0.90469 0.74259 0.94376 0.05200
H 	H 	0.84976 0.63496 0.94456 0.05200
H 	H 	0.72746 0.63920 0.00975 0.04500
H 	H 	0.78238 0.74682 0.00894 0.04900
C 	C 	0.86319 0.09602 0.99961 0.02600
C 	C 	0.89320 0.15726 0.00058 -0.04500
C 	C 	0.86097 0.18131 0.00109 -0.02200
C 	C 	0.79858 0.14420 0.00061 -0.00900
C 	C 	0.76892 0.08328 0.00082 -0.02200
C 	C 	0.80117 0.05925 0.00035 -0.04700
C 	C 	0.89518 0.07030 0.99575 0.00400
C 	C 	0.92079 0.04761 0.99205 -0.03000
C 	C 	0.76423 0.16751 0.99610 0.06000
C 	C 	0.73608 0.18745 0.99106 -0.10500
H 	H 	0.94117 0.18601 0.00015 0.05000
H 	H 	0.88421 0.22845 0.00089 0.04600
H 	H 	0.72071 0.05430 0.00041 0.04500
H 	H 	0.77770 0.01189 0.99974 0.05200
C 	C 	0.21383 0.11464 0.97264 0.02000
C 	C 	0.23165 0.08705 0.94828 -0.04000
C 	C 	0.29306 0.11387 0.94913 -0.02500
C 	C 	0.33692 0.16840 0.97433 -0.00500
C 	C 	0.31911 0.19675 0.99793 -0.02300
C 	C 	0.25769 0.16991 0.99710 -0.03900
C 	C 	0.15087 0.08413 0.97463 0.01000
C 	C 	0.09811 0.05728 0.97655 -0.03000
C 	C 	0.40003 0.19361 0.97766 0.05300
C 	C 	0.45300 0.21496 0.98132 -0.10200
H 	H 	0.19799 0.04431 0.92928 0.05000
H 	H 	0.30648 0.09174 0.93075 0.04500
H 	H 	0.35277 0.23898 0.01743 0.04400
H 	H 	0.24428 0.19150 0.01601 0.05000
