data_crystal

_cell_length_a 19.43823
_cell_length_b 18.16278
_cell_length_c 26.67166
_cell_angle_alpha 95.43330
_cell_angle_beta  95.43475
_cell_angle_gamma 126.42967

_symmetry_space_group_name_	'P 1'
_symmetry_space_group_name_H-M	'P 1'

loop_
_symmetry_equiv_pos_as_xyz
  x,y,z

loop_
_atom_site_label
_atom_site_type_symbol
_atom_site_fract_x
_atom_site_fract_y
_atom_site_fract_z
_atom_site_charge
C 	C 	0.96477 0.06174 0.97853 0.08300
C 	C 	0.05476 0.11332 0.98074 -0.10800
C 	C 	0.09552 0.07151 0.98862 0.07600
H 	H 	0.09273 0.18541 0.97601 0.06900
C 	C 	0.04034 0.00625 0.48602 0.03300
C 	C 	0.99241 0.04131 0.48379 -0.03900
H 	H 	0.02598 0.11592 0.49121 0.04600
Cu	Cu	0.75423 0.26677 0.04595 0.89700
Cu	Cu	0.62704 0.30347 0.01913 0.90000
C 	C 	0.67376 0.33684 0.84149 0.30600
C 	C 	0.68465 0.30024 0.12531 0.29900
O 	O 	0.61981 0.28589 0.94636 -0.63200
O 	O 	0.80968 0.29353 0.93564 -0.34500
O 	O 	0.72299 0.18922 0.98281 -0.39500
O 	O 	0.50339 0.23954 0.01377 -0.37500
C 	C 	0.45769 0.25688 0.98457 0.31700
O 	O 	0.49443 0.32367 0.95744 -0.38000
O 	O 	0.72940 0.33136 0.87026 -0.31900
C 	C 	0.78140 0.21744 0.95374 0.31100
O 	O 	0.63208 0.30613 0.09362 -0.35900
O 	O 	0.75501 0.31530 0.11244 -0.35400
H 	H 	0.57774 0.22031 0.92822 0.21400
Cu	Cu	0.68862 0.27154 0.43607 0.93100
Cu	Cu	0.68849 0.19905 0.54343 0.87800
Cu	Cu	0.57414 0.24854 0.51391 0.89900
Cu	Cu	0.52726 0.27289 0.40860 0.91600
C 	C 	0.62580 0.26349 0.33276 0.29800
C 	C 	0.64576 0.27376 0.62293 0.29600
O 	O 	0.55673 0.20570 0.44176 -0.63700
O 	O 	0.69534 0.29370 0.51105 -0.64100
O 	O 	0.74333 0.20667 0.43359 -0.35800
O 	O 	0.65531 0.11146 0.48415 -0.43100
O 	O 	0.55318 0.24877 0.34118 -0.31600
O 	O 	0.45301 0.19455 0.51407 -0.37400
C 	C 	0.40367 0.20598 0.48345 0.30400
O 	O 	0.42262 0.23231 0.43895 -0.37400
O 	O 	0.66359 0.23835 0.36280 -0.35100
C 	C 	0.71218 0.13264 0.45452 0.30400
O 	O 	0.59191 0.27528 0.58939 -0.33600
O 	O 	0.70338 0.26395 0.60874 -0.37600
H 	H 	0.51512 0.13717 0.43065 0.17600
C 	C 	0.66545 0.31961 0.78548 -0.00100
C 	C 	0.60998 0.22798 0.75643 -0.10000
C 	C 	0.60188 0.21465 0.70275 0.04800
C 	C 	0.64641 0.29101 0.67798 0.00000
H 	H 	0.56217 0.14480 0.68009 0.06500
C 	C 	0.56002 0.14464 0.78267 0.77900
F 	F 	0.50893 0.15295 0.81179 -0.46700
F 	F 	0.61794 0.14064 0.81428 -0.45800
F 	F 	0.50600 0.06156 0.74767 -0.44700
C 	C 	0.67161 0.29145 0.17870 -0.00200
C 	C 	0.67145 0.22436 0.20208 -0.09700
C 	C 	0.66362 0.22205 0.25390 0.05100
C 	C 	0.64769 0.27890 0.28115 0.00300
H 	H 	0.66657 0.17332 0.27262 0.08100
C 	C 	0.68025 0.15560 0.17225 0.77700
F 	F 	0.76592 0.20052 0.16694 -0.46600
F 	F 	0.62741 0.11812 0.12421 -0.47400
F 	F 	0.65600 0.08231 0.19718 -0.44700
C 	C 	0.79067 0.08860 0.50655 -0.01400
C 	C 	0.75922 0.09205 0.45788 -0.11900
C 	C 	0.77289 0.05659 0.41345 0.14100
C 	C 	0.82028 0.02117 0.41885 -0.07700
C 	C 	0.85127 0.01747 0.46754 0.00800
C 	C 	0.83538 0.05038 0.51182 0.06400
N 	N 	0.86219 0.04490 0.55942 -0.19100
H 	H 	0.78018 0.11572 0.54055 0.01400
N 	N 	0.73900 0.05401 0.36568 -0.20300
H 	H 	0.85133 0.07078 0.59193 0.09400
H 	H 	0.89253 0.01357 0.56470 0.10000
H 	H 	0.69756 0.07242 0.36015 0.12100
H 	H 	0.75162 0.03021 0.33320 0.11900
C 	C 	0.17804 0.14102 0.46471 -0.08900
C 	C 	0.13725 0.07126 0.49435 -0.00700
C 	C 	0.18926 0.06107 0.52952 0.07200
C 	C 	0.27773 0.10777 0.52712 -0.02100
C 	C 	0.31718 0.17330 0.49489 -0.09900
C 	C 	0.26873 0.19775 0.46860 0.13500
N 	N 	0.30931 0.27830 0.45007 -0.20000
H 	H 	0.13956 0.15261 0.43948 0.06100
H 	H 	0.31558 0.09318 0.55045 0.06300
H 	H 	0.27302 0.29285 0.42777 0.10000
C 	C 	0.87720 0.09168 0.92302 -0.08400
C 	C 	0.92221 0.10645 0.97180 -0.00900
C 	C 	0.92608 0.16358 0.01369 0.07000
C 	C 	0.88405 0.20411 0.00595 -0.02900
C 	C 	0.83589 0.18617 0.95774 -0.10300
C 	C 	0.83386 0.13111 0.91551 0.14600
N 	N 	0.79028 0.11545 0.86792 -0.20600
H 	H 	0.87539 0.04883 0.89090 0.06600
H 	H 	0.88637 0.24741 0.03806 0.01900
N 	N 	0.96852 0.17836 0.06154 -0.19200
H 	H 	0.78798 0.07340 0.83715 0.11400
H 	H 	0.75943 0.14577 0.86078 0.14900
H 	H 	0.99752 0.14631 0.06922 0.09800
H 	H 	0.97172 0.22152 0.09206 0.10500
C 	C 	0.30325 0.14939 0.94255 -0.02400
C 	C 	0.36551 0.20851 0.98688 -0.08700
C 	C 	0.33929 0.22631 0.03135 0.12700
C 	C 	0.25055 0.18200 0.03081 -0.09300
C 	C 	0.18835 0.12264 0.98646 -0.01000
C 	C 	0.21493 0.10730 0.94157 0.08200
N 	N 	0.15617 0.05313 0.89736 -0.19400
H 	H 	0.32387 0.13732 0.90833 0.06000
H 	H 	0.22977 0.19368 0.06504 0.06300
N 	N 	0.39876 0.28669 0.07424 -0.20100
H 	H 	0.17624 0.04053 0.86477 0.10600
H 	H 	0.09062 0.02487 0.89441 0.09900
H 	H 	0.46554 0.32453 0.07524 0.11200
H 	H 	0.37839 0.29786 0.10708 0.11000
N 	N 	0.15576 0.01002 0.56674 -0.17600
Cu	Cu	0.75272 0.35520 0.94400 0.93500
Cu	Cu	0.59791 0.36760 0.92547 0.90700
H 	H 	0.37626 0.33064 0.46153 0.10800
O 	O 	0.75278 0.36149 0.01913 -0.63700
C 	C 	0.65776 0.34977 0.20618 0.05500
O 	O 	0.64445 0.38072 0.86088 -0.36600
C 	C 	0.64692 0.34545 0.25745 -0.10400
F 	F 	0.53915 0.35789 0.28102 -0.45800
H 	H 	0.74052 0.35854 0.52953 0.20100
C 	C 	0.69900 0.38276 0.70688 -0.09600
C 	C 	0.70899 0.39603 0.76064 0.05300
H 	H 	0.65504 0.39857 0.18737 0.07300
O 	O 	0.63619 0.40403 0.45850 -0.36600
C 	C 	0.62810 0.40725 0.28487 0.78200
O 	O 	0.74784 0.40759 0.43476 -0.34700
H 	H 	0.19317 0.99887 0.59080 0.08700
H 	H 	0.83209 0.99527 0.38499 0.05300
C 	C 	0.90117 0.98015 0.47165 0.00500
C 	C 	0.04659 0.97862 0.99486 -0.10800
C 	C 	0.95634 0.92598 0.99089 0.06800
C 	C 	0.91545 0.96778 0.98320 -0.11500
H 	H 	0.07806 0.94593 0.00008 0.05600
H 	H 	0.84547 0.92703 0.98006 0.07200
C 	C 	0.85732 0.88364 0.46419 -0.06800
C 	C 	0.90452 0.84807 0.46774 0.03800
C 	C 	0.99592 0.90928 0.47714 -0.07400
H 	H 	0.78673 0.83643 0.45609 0.06000
H 	H 	0.03226 0.88152 0.47780 0.05100
O 	O 	0.81350 0.49383 0.95113 -0.35500
C 	C 	0.78192 0.53297 0.97279 0.29500
O 	O 	0.70409 0.48091 0.98396 -0.38300
H 	H 	0.79331 0.42450 0.04072 0.17900
C 	C 	0.71719 0.45131 0.45137 0.31800
C 	C 	0.74449 0.46627 0.68043 0.77900
H 	H 	0.75047 0.46585 0.78340 0.07100
F 	F 	0.78899 0.54960 0.71496 -0.45500
F 	F 	0.68369 0.46103 0.64555 -0.46200
F 	F 	0.80363 0.46721 0.65489 -0.45800
F 	F 	0.65934 0.48552 0.26328 -0.45800
F 	F 	0.66739 0.43773 0.33595 -0.48300
C 	C 	0.81680 0.70350 0.50362 -0.08200
C 	C 	0.85811 0.74652 0.46357 -0.01100
C 	C 	0.85807 0.69324 0.42119 0.08500
C 	C 	0.81831 0.59844 0.42037 -0.00900
C 	C 	0.77259 0.55423 0.45887 -0.08800
C 	C 	0.77582 0.60821 0.50231 0.13600
N 	N 	0.74408 0.57042 0.54386 -0.20000
H 	H 	0.81872 0.74490 0.53662 0.06400
H 	H 	0.82023 0.55822 0.38859 0.09200
N 	N 	0.89375 0.73180 0.38060 -0.19100
H 	H 	0.74309 0.60951 0.57477 0.13200
H 	H 	0.72529 0.50432 0.54732 0.13200
H 	H 	0.91699 0.79960 0.37781 0.10000
H 	H 	0.89551 0.69253 0.35018 0.11200
H 	H 	0.09469 0.98632 0.57433 0.08200
C 	C 	0.87197 0.76834 0.93833 -0.08400
C 	C 	0.90383 0.82441 0.98705 -0.00900
C 	C 	0.89496 0.78447 0.03131 0.06600
C 	C 	0.85701 0.68928 0.02578 -0.03600
C 	C 	0.82745 0.63366 0.97696 -0.09300
C 	C 	0.83464 0.67353 0.93264 0.13100
N 	N 	0.80595 0.62145 0.88466 -0.20500
H 	H 	0.87892 0.79945 0.90456 0.06300
H 	H 	0.84980 0.65824 0.05958 0.04800
N 	N 	0.92181 0.83674 0.07904 -0.19200
H 	H 	0.81020 0.65145 0.85240 0.11500
H 	H 	0.78062 0.55160 0.87866 0.11300
H 	H 	0.94603 0.90645 0.08436 0.09200
H 	H 	0.91673 0.80714 0.11156 0.09600
