data_crystal

_cell_length_a 29.35511
_cell_length_b 29.32387
_cell_length_c 22.48701
_cell_angle_alpha 88.42541
_cell_angle_beta  92.29764
_cell_angle_gamma 90.01931

_symmetry_space_group_name_	'P 1'
_symmetry_space_group_name_H-M	'P 1'

loop_
_symmetry_equiv_pos_as_xyz
  x,y,z

loop_
_atom_site_label
_atom_site_type_symbol
_atom_site_fract_x
_atom_site_fract_y
_atom_site_fract_z
_atom_site_charge
C 	C 	0.67745 0.29162 0.99821 0.02200
C 	C 	0.66042 0.24901 0.01635 -0.02800
C 	C 	0.68795 0.21016 0.01518 -0.06600
C 	C 	0.73275 0.21356 0.99614 0.08700
C 	C 	0.74968 0.25639 0.97755 -0.06500
C 	C 	0.72219 0.29519 0.97899 -0.02400
N 	N 	0.76090 0.17312 0.99662 -0.13900
C 	C 	0.83054 0.14834 0.83834 0.00800
C 	C 	0.85225 0.17295 0.88395 -0.01800
C 	C 	0.82963 0.18139 0.93605 -0.06500
C 	C 	0.78454 0.16600 0.94249 0.08400
C 	C 	0.76260 0.14244 0.89611 -0.06300
C 	C 	0.78549 0.13355 0.84430 -0.02000
C 	C 	0.83947 0.14108 0.15544 0.00800
C 	C 	0.81563 0.10685 0.12501 -0.02000
C 	C 	0.78963 0.11776 0.07314 -0.06100
C 	C 	0.78697 0.16298 0.05135 0.07700
C 	C 	0.81026 0.19750 0.08274 -0.06600
C 	C 	0.83624 0.18648 0.13459 -0.02100
H 	H 	0.62592 0.24602 0.03138 0.04800
H 	H 	0.67462 0.17738 0.02942 0.05700
H 	H 	0.78424 0.25979 0.96318 0.05200
H 	H 	0.73565 0.32806 0.96525 0.04700
H 	H 	0.88685 0.18501 0.87932 0.04800
H 	H 	0.84687 0.20027 0.97091 0.05600
H 	H 	0.72794 0.13058 0.90060 0.06000
H 	H 	0.76838 0.11483 0.80906 0.04800
H 	H 	0.81790 0.07169 0.14098 0.05000
H 	H 	0.77180 0.09102 0.04945 0.05800
H 	H 	0.80941 0.23243 0.06624 0.05000
H 	H 	0.85465 0.21309 0.15785 0.04500
C 	C 	0.29976 0.81494 0.97369 0.00400
C 	C 	0.25320 0.81392 0.95713 -0.02000
C 	C 	0.22678 0.85340 0.95963 -0.06800
C 	C 	0.24712 0.89478 0.97706 0.08100
C 	C 	0.29346 0.89541 0.99456 -0.06000
C 	C 	0.31947 0.85555 0.99395 -0.01400
N 	N 	0.22119 0.93666 0.97694 -0.14200
C 	C 	0.16485 0.97652 0.13866 -0.01800
C 	C 	0.18787 0.00828 0.10315 0.02500
C 	C 	0.20719 0.99466 0.05072 -0.10800
C 	C 	0.20417 0.94911 0.03364 0.09300
C 	C 	0.18298 0.91677 0.07090 -0.07900
C 	C 	0.16330 0.93055 0.12306 -0.01100
C 	C 	0.12899 0.96570 0.83024 0.01100
C 	C 	0.11363 0.94164 0.88027 -0.02200
C 	C 	0.14378 0.93138 0.92842 -0.06500
C 	C 	0.18995 0.94447 0.92639 0.08200
C 	C 	0.20544 0.96703 0.87535 -0.06400
C 	C 	0.17511 0.97771 0.82753 -0.02400
H 	H 	0.23746 0.78246 0.94270 0.04300
H 	H 	0.19071 0.85175 0.94822 0.05200
H 	H 	0.30922 0.92686 0.00885 0.05000
H 	H 	0.35508 0.85632 0.00856 0.04100
H 	H 	0.18958 0.04377 0.11527 0.03900
H 	H 	0.22377 0.01965 0.02261 0.07600
H 	H 	0.18021 0.88150 0.05838 0.05200
H 	H 	0.14580 0.90577 0.15053 0.03800
H 	H 	0.07815 0.93174 0.88232 0.04600
H 	H 	0.13143 0.91296 0.96682 0.05400
H 	H 	0.24086 0.97703 0.87330 0.05600
H 	H 	0.18727 0.99602 0.78878 0.04400
Zn	Zn	0.48546 0.59407 0.94571 1.22600
Zn	Zn	0.44269 0.58835 0.08363 1.19900
C 	C 	0.58397 0.46282 0.00342 0.33200
Zn	Zn	0.51742 0.52630 0.04849 1.22400
Zn	Zn	0.58019 0.54907 0.93338 1.20200
H 	H 	0.43857 0.52894 0.00329 0.18600
C 	C 	0.54229 0.59239 0.13501 0.32200
O 	O 	0.57555 0.58277 0.85629 -0.45400
O 	O 	0.51969 0.63322 0.87929 -0.39600
O 	O 	0.46085 0.55273 0.01505 -0.79600
O 	O 	0.43346 0.65074 0.04792 -0.44300
O 	O 	0.46539 0.55000 0.88550 -0.42900
O 	O 	0.44381 0.64711 0.94775 -0.42200
O 	O 	0.52700 0.50266 0.90073 -0.41000
O 	O 	0.44888 0.54596 0.15469 -0.45000
H 	H 	0.55684 0.60578 0.00887 0.18800
O 	O 	0.48111 0.48509 0.10959 -0.38600
O 	O 	0.54229 0.57868 0.99107 -0.78700
O 	O 	0.60762 0.49719 0.98204 -0.45200
O 	O 	0.55133 0.55133 0.11736 -0.42900
O 	O 	0.54168 0.46853 0.01895 -0.42700
O 	O 	0.50934 0.61631 0.10835 -0.41300
C 	C 	0.54926 0.61803 0.84188 0.32700
C 	C 	0.41949 0.66003 0.99258 0.31700
C 	C 	0.48933 0.51457 0.87020 0.31900
C 	C 	0.45949 0.50218 0.15416 0.31800
C 	C 	0.42859 0.39300 0.68620 0.00800
C 	C 	0.38344 0.39211 0.66328 -0.02200
C 	C 	0.37254 0.36888 0.61118 -0.06800
C 	C 	0.40660 0.34486 0.58247 0.08100
C 	C 	0.45131 0.34437 0.60687 -0.06300
C 	C 	0.46249 0.36913 0.65764 -0.01900
N 	N 	0.39700 0.32345 0.52611 -0.14100
C 	C 	0.43164 0.39869 0.36994 0.00800
C 	C 	0.43988 0.35164 0.37494 -0.02000
C 	C 	0.42943 0.32737 0.42698 -0.06400
C 	C 	0.41042 0.34981 0.47434 0.08100
C 	C 	0.40289 0.39732 0.46956 -0.06700
C 	C 	0.41338 0.42148 0.41750 -0.02000
C 	C 	0.26907 0.25596 0.50577 0.00700
C 	C 	0.27486 0.29937 0.47958 -0.02200
C 	C 	0.31627 0.32231 0.48725 -0.06800
C 	C 	0.35293 0.30142 0.52020 0.08100
C 	C 	0.34666 0.25836 0.54727 -0.06400
C 	C 	0.30477 0.23597 0.54076 -0.01900
H 	H 	0.35712 0.41083 0.68465 0.04400
H 	H 	0.33808 0.37063 0.59235 0.05200
H 	H 	0.47775 0.32623 0.58499 0.05900
H 	H 	0.49764 0.37045 0.67416 0.05100
H 	H 	0.45393 0.33383 0.33828 0.04700
H 	H 	0.43537 0.29093 0.43024 0.05900
H 	H 	0.38738 0.41514 0.50504 0.05300
H 	H 	0.40668 0.45780 0.41374 0.04600
H 	H 	0.24712 0.31546 0.45360 0.04300
H 	H 	0.31957 0.35637 0.46835 0.05200
H 	H 	0.37435 0.24226 0.57328 0.05900
H 	H 	0.30019 0.20289 0.56233 0.04900
C 	C 	0.60924 0.69608 0.32947 0.00600
C 	C 	0.59029 0.73996 0.32426 -0.02200
C 	C 	0.59789 0.77100 0.36963 -0.06500
C 	C 	0.62428 0.75846 0.42072 0.08100
C 	C 	0.64437 0.71474 0.42518 -0.06700
C 	C 	0.63724 0.68395 0.37936 -0.02000
N 	N 	0.62771 0.78933 0.46964 -0.14200
C 	C 	0.59118 0.72502 0.63257 0.00800
C 	C 	0.63730 0.73154 0.62098 -0.02000
C 	C 	0.64971 0.75344 0.56813 -0.06700
C 	C 	0.61584 0.76930 0.52636 0.08300
C 	C 	0.56974 0.76356 0.53884 -0.06300
C 	C 	0.55744 0.74127 0.59149 -0.01900
C 	C 	0.74121 0.87951 0.47631 0.00600
C 	C 	0.69733 0.89544 0.48679 -0.02000
C 	C 	0.66022 0.86558 0.48435 -0.06500
C 	C 	0.66651 0.81971 0.47064 0.08100
C 	C 	0.71060 0.80396 0.45918 -0.06900
C 	C 	0.74768 0.83377 0.46221 -0.02100
H 	H 	0.56893 0.74969 0.28557 0.04400
H 	H 	0.58235 0.80449 0.36583 0.05400
H 	H 	0.66495 0.70453 0.46426 0.05200
H 	H 	0.65241 0.65028 0.38337 0.04600
H 	H 	0.66354 0.71874 0.65236 0.04500
H 	H 	0.68543 0.75674 0.55895 0.05400
H 	H 	0.54349 0.77559 0.50701 0.05700
H 	H 	0.52172 0.73609 0.60003 0.04800
H 	H 	0.69203 0.93087 0.49711 0.04600
H 	H 	0.62648 0.87800 0.49315 0.05600
H 	H 	0.71641 0.76861 0.44961 0.05100
H 	H 	0.78150 0.82131 0.45380 0.04300
Zn	Zn	0.03522 0.09041 0.43867 1.22300
Zn	Zn	0.02218 0.13551 0.57312 1.19600
C 	C 	0.90392 0.98777 0.47806 0.32100
Zn	Zn	0.96369 0.05780 0.53128 1.22500
Zn	Zn	0.99024 0.99745 0.41722 1.19700
H 	H 	0.96564 0.13617 0.48410 0.18900
C 	C 	0.02819 0.03698 0.62674 0.31200
O 	O 	0.02296 0.00886 0.34320 -0.45500
O 	O 	0.07872 0.05562 0.38066 -0.38500
O 	O 	0.98952 0.11477 0.49997 -0.78900
O 	O 	0.08604 0.14607 0.54902 -0.44200
O 	O 	0.99425 0.10809 0.36973 -0.42800
O 	O 	0.08683 0.13341 0.44866 -0.42800
O 	O 	0.94271 0.05154 0.38836 -0.39800
O 	O 	0.97805 0.12926 0.63835 -0.44900
H 	H 	0.04487 0.01829 0.50238 0.19800
O 	O 	0.91963 0.09423 0.58610 -0.38100
O 	O 	0.01847 0.03341 0.48139 -0.78900
O 	O 	0.93958 0.96636 0.45883 -0.45400
O 	O 	0.98805 0.02620 0.60399 -0.42000
O 	O 	0.90723 0.02998 0.49632 -0.40300
O 	O 	0.05155 0.07023 0.60264 -0.41000
C 	C 	0.06426 0.02601 0.34125 0.31300
C 	C 	0.10035 0.15674 0.49566 0.32000
C 	C 	0.95450 0.08869 0.35868 0.31700
C 	C 	0.93478 0.11717 0.63248 0.31700
C 	C 	0.78023 0.91108 0.47766 0.01500
C 	C 	0.80299 0.92165 0.53190 0.02200
C 	C 	0.84229 0.94870 0.53167 -0.00000
C 	C 	0.85961 0.96459 0.47773 -0.09700
C 	C 	0.83603 0.95513 0.42361 0.09000
C 	C 	0.79644 0.92863 0.42394 -0.07900
H 	H 	0.86019 0.95616 0.57337 0.04800
H 	H 	0.77868 0.92093 0.38223 0.06300
I 	I 	0.77998 0.89559 0.61452 -0.10300
I 	I 	0.85902 0.98045 0.34064 -0.12900
C 	C 	0.14141 0.18539 0.49155 -0.09700
C 	C 	0.14483 0.22685 0.52173 0.09000
C 	C 	0.18670 0.24954 0.52615 -0.07800
C 	C 	0.22489 0.23232 0.49870 0.01500
C 	C 	0.22055 0.19288 0.46449 0.02200
C 	C 	0.17912 0.16928 0.46181 0.00200
H 	H 	0.18952 0.28074 0.55078 0.06400
H 	H 	0.17650 0.13792 0.43751 0.06200
I 	I 	0.08672 0.25779 0.55724 -0.16900
I 	I 	0.27527 0.16919 0.41446 -0.09500
C 	C 	0.43981 0.42367 0.31371 0.01500
C 	C 	0.48140 0.44643 0.30518 0.02400
C 	C 	0.48784 0.47121 0.25215 0.00200
C 	C 	0.45303 0.47377 0.20767 -0.09400
C 	C 	0.41166 0.45069 0.21591 0.08700
C 	C 	0.40528 0.42566 0.26877 -0.07600
H 	H 	0.51976 0.48894 0.24578 0.05400
H 	H 	0.37330 0.40808 0.27520 0.06400
I 	I 	0.53478 0.44443 0.37182 -0.09300
I 	I 	0.35815 0.45339 0.14946 -0.13000
C 	C 	0.47012 0.48372 0.82478 -0.09300
C 	C 	0.44979 0.50099 0.77058 0.08900
C 	C 	0.43637 0.47091 0.72603 -0.07600
C 	C 	0.44129 0.42367 0.73522 0.01500
C 	C 	0.45909 0.40627 0.79041 0.02300
C 	C 	0.47406 0.43631 0.83438 -0.00300
H 	H 	0.42223 0.48433 0.68385 0.06400
H 	H 	0.48848 0.42273 0.87633 0.05700
I 	I 	0.43871 0.57206 0.75331 -0.09300
I 	I 	0.46156 0.33498 0.81002 -0.09400
C 	C 	0.59833 0.66244 0.28354 0.01500
C 	C 	0.56292 0.63061 0.29121 0.02300
C 	C 	0.54747 0.60462 0.24324 -0.00100
C 	C 	0.56655 0.61051 0.18742 -0.09900
C 	C 	0.60419 0.63970 0.18099 0.09300
C 	C 	0.61992 0.66552 0.22906 -0.07900
H 	H 	0.51897 0.58154 0.24855 0.04900
H 	H 	0.64786 0.68921 0.22342 0.06400
I 	I 	0.53024 0.62300 0.37353 -0.10200
I 	I 	0.63731 0.64608 0.09899 -0.15000
C 	C 	0.55771 0.64493 0.78689 -0.09700
C 	C 	0.56898 0.62354 0.73367 0.09100
C 	C 	0.57920 0.65024 0.68350 -0.07800
C 	C 	0.57835 0.69791 0.68532 0.01500
C 	C 	0.56634 0.71927 0.73770 0.02200
C 	C 	0.55592 0.69279 0.78801 -0.00100
H 	H 	0.58802 0.63384 0.64290 0.06500
H 	H 	0.54740 0.70950 0.82850 0.05500
I 	I 	0.56945 0.55126 0.72574 -0.10300
I 	I 	0.56482 0.79150 0.74264 -0.09900
C 	C 	0.09185 0.01686 0.28972 -0.07900
C 	C 	0.13627 0.99872 0.29742 0.06800
C 	C 	0.16023 0.98662 0.24760 -0.07200
C 	C 	0.14011 0.99181 0.19021 0.00300
C 	C 	0.09595 0.01033 0.18250 0.03600
C 	C 	0.07222 0.02297 0.23213 -0.00800
H 	H 	0.19420 0.97233 0.25359 0.06100
H 	H 	0.03807 0.03675 0.22601 0.05400
I 	I 	0.16691 0.98611 0.38358 -0.12700
I 	I 	0.06352 0.01806 0.09655 -0.08900
C 	C 	0.09659 0.97982 0.78152 -0.00500
C 	C 	0.07093 0.02016 0.78509 0.04100
C 	C 	0.04589 0.03691 0.73500 -0.01200
C 	C 	0.04615 0.01382 0.68127 -0.07800
C 	C 	0.06926 0.97190 0.67883 0.07300
C 	C 	0.09441 0.95513 0.72894 -0.06800
H 	H 	0.02771 0.06896 0.73713 0.04900
H 	H 	0.11343 0.92361 0.72644 0.06200
I 	I 	0.07099 0.05765 0.86466 -0.08700
I 	I 	0.06802 0.93401 0.59967 -0.15100
C 	C 	0.38523 0.69642 0.98162 -0.09300
C 	C 	0.34560 0.69758 0.01505 0.08600
C 	C 	0.31764 0.73625 0.01164 -0.08400
C 	C 	0.32736 0.77288 0.97280 0.02200
C 	C 	0.36427 0.76966 0.93490 0.02100
C 	C 	0.39354 0.73200 0.94037 0.00200
H 	H 	0.28828 0.73784 0.03924 0.06400
H 	H 	0.42309 0.73072 0.91309 0.06000
I 	I 	0.32491 0.64011 0.06706 -0.18500
I 	I 	0.37517 0.81971 0.86678 -0.09900
C 	C 	0.86944 0.12909 0.20765 0.01500
C 	C 	0.91534 0.11718 0.20062 0.02300
C 	C 	0.94320 0.10553 0.25061 0.00100
C 	C 	0.92566 0.10518 0.30770 -0.09300
C 	C 	0.88001 0.11808 0.31492 0.08900
C 	C 	0.85210 0.12974 0.26484 -0.07400
H 	H 	0.97837 0.09591 0.24498 0.05400
H 	H 	0.81695 0.13948 0.27039 0.06600
I 	I 	0.94336 0.11587 0.11498 -0.08900
I 	I 	0.85308 0.12283 0.40089 -0.09500
C 	C 	0.90523 0.12267 0.68290 -0.09300
C 	C 	0.87092 0.15626 0.68100 0.08700
C 	C 	0.84605 0.16378 0.73170 -0.07600
C 	C 	0.85509 0.13798 0.78433 0.01600
C 	C 	0.88840 0.10334 0.78552 0.02300
C 	C 	0.91332 0.09597 0.73493 0.00200
H 	H 	0.82016 0.19017 0.73048 0.06500
H 	H 	0.93928 0.06965 0.73618 0.05400
I 	I 	0.85686 0.19696 0.60283 -0.11200
I 	I 	0.90150 0.06127 0.86278 -0.08000
C 	C 	0.60332 0.41677 0.00377 -0.10500
C 	C 	0.62242 0.39670 0.05659 0.08800
C 	C 	0.64533 0.35493 0.05470 -0.07300
C 	C 	0.64883 0.33275 0.00057 0.00100
C 	C 	0.62733 0.35159 0.94841 0.02800
C 	C 	0.60502 0.39364 0.95018 0.00500
H 	H 	0.66117 0.34012 0.09509 0.06200
H 	H 	0.58936 0.40859 0.90974 0.04700
I 	I 	0.61763 0.42900 0.13957 -0.10300
I 	I 	0.62742 0.31699 0.86665 -0.09700
