data_crystal

_cell_length_a 42.20056
_cell_length_b 38.76975
_cell_length_c 30.12096
_cell_angle_alpha 89.52858
_cell_angle_beta  89.99995
_cell_angle_gamma 89.99997

_symmetry_space_group_name_	'P 1'
_symmetry_space_group_name_H-M	'P 1'

loop_
_symmetry_equiv_pos_as_xyz
  x,y,z

loop_
_atom_site_label
_atom_site_type_symbol
_atom_site_fract_x
_atom_site_fract_y
_atom_site_fract_z
_atom_site_charge
C 	C 	0.55255 0.55298 0.12373 0.10100
N 	N 	0.54763 0.51918 0.11631 -0.17300
C 	C 	0.57172 0.50213 0.13594 0.10100
C 	C 	0.58038 0.46640 0.12393 -0.07600
C 	C 	0.55611 0.43874 0.12528 0.09000
C 	C 	0.61328 0.45820 0.11109 0.04200
C 	C 	0.62148 0.45625 0.06609 -0.05400
C 	C 	0.65145 0.44440 0.05374 -0.02800
C 	C 	0.67398 0.43593 0.08636 0.01200
C 	C 	0.63576 0.44987 0.14373 -0.05400
N 	N 	0.52559 0.44487 0.13586 -0.12700
C 	C 	0.55921 0.40734 0.10410 -0.06000
C 	C 	0.50928 0.41707 0.12194 0.09000
C 	C 	0.47444 0.41750 0.11596 -0.07500
C 	C 	0.45786 0.38649 0.09983 0.04200
C 	C 	0.43812 0.32852 0.11274 -0.02900
C 	C 	0.44574 0.38581 0.05650 -0.05300
C 	C 	0.43002 0.35646 0.04122 -0.02800
C 	C 	0.42581 0.32789 0.06949 0.01200
N 	N 	0.46238 0.47992 0.11091 -0.17200
C 	C 	0.43611 0.49908 0.11674 0.10200
C 	C 	0.41276 0.47981 0.13773 -0.06100
C 	C 	0.42551 0.44742 0.14489 -0.06100
C 	C 	0.43018 0.53150 0.09167 -0.07500
C 	C 	0.39750 0.54184 0.08016 0.04300
C 	C 	0.35315 0.58091 0.08913 -0.02900
C 	C 	0.33618 0.56294 0.05667 0.01200
C 	C 	0.34998 0.53439 0.03588 -0.02800
C 	C 	0.38056 0.52381 0.04768 -0.05400
N 	N 	0.48274 0.55705 0.10854 -0.12800
C 	C 	0.48986 0.58901 0.04645 -0.06100
C 	C 	0.50295 0.57767 0.08605 0.08900
C 	C 	0.53693 0.58048 0.09721 -0.07400
C 	C 	0.55452 0.61202 0.08451 0.04200
C 	C 	0.54473 0.64422 0.10043 -0.05100
C 	C 	0.55999 0.67431 0.08617 -0.02900
C 	C 	0.58522 0.67241 0.05601 0.01400
C 	C 	0.59530 0.64020 0.04051 -0.02900
C 	C 	0.58003 0.61008 0.05479 -0.05400
C 	C 	0.57995 0.55766 0.14829 -0.06100
C 	C 	0.59225 0.52514 0.15602 -0.06100
C 	C 	0.66614 0.43922 0.13143 -0.03000
C 	C 	0.52922 0.39351 0.10190 -0.06000
C 	C 	0.45604 0.44849 0.12804 0.10300
C 	C 	0.45989 0.57505 0.04476 -0.06100
C 	C 	0.45637 0.55594 0.08337 0.08900
C 	C 	0.38367 0.57038 0.10088 -0.05200
H 	H 	0.53454 0.50962 0.08964 0.09400
H 	H 	0.47926 0.48462 0.08620 0.09400
H 	H 	0.55207 0.69911 0.09823 0.04800
H 	H 	0.61473 0.63855 0.01712 0.04500
H 	H 	0.52509 0.64593 0.12348 0.05000
H 	H 	0.58770 0.58532 0.04229 0.04800
H 	H 	0.65703 0.44131 0.01889 0.04400
H 	H 	0.62956 0.45123 0.17857 0.04900
H 	H 	0.68331 0.43263 0.15686 0.04600
H 	H 	0.60420 0.46260 0.04070 0.04600
H 	H 	0.42077 0.35608 0.00768 0.04700
H 	H 	0.44858 0.40795 0.03469 0.04700
C 	C 	0.45414 0.35770 0.12782 -0.05300
H 	H 	0.43508 0.30649 0.13469 0.04500
H 	H 	0.34265 0.60303 0.10524 0.04300
H 	H 	0.39660 0.58441 0.12601 0.05000
H 	H 	0.39113 0.50178 0.03147 0.04800
H 	H 	0.33703 0.52042 0.01071 0.04700
H 	H 	0.59368 0.58123 0.14909 0.05500
H 	H 	0.61689 0.51999 0.16348 0.05300
H 	H 	0.57843 0.40049 0.08210 0.04900
H 	H 	0.52187 0.37467 0.07765 0.05000
H 	H 	0.38762 0.48523 0.13620 0.05600
H 	H 	0.41160 0.42418 0.14933 0.05500
H 	H 	0.50330 0.59736 0.01770 0.05000
H 	H 	0.44655 0.57103 0.01455 0.05000
H 	H 	0.46347 0.35806 0.16132 0.04900
Co	Co	0.35148 0.14105 0.97647 1.18200
Co	Co	0.30021 0.16746 0.04243 1.10000
O 	O 	0.38293 0.11914 0.93418 -0.35100
O 	O 	0.35033 0.15157 0.89974 -0.30400
O 	O 	0.36418 0.12456 0.03602 -0.39400
O 	O 	0.34131 0.19109 0.05333 -0.45200
C 	C 	0.34373 0.11027 0.06353 0.29800
C 	C 	0.37457 0.13151 0.89621 0.28300
O 	O 	0.31364 0.11901 0.06191 -0.42900
O 	O 	0.36147 0.18943 0.98305 -0.42600
C 	C 	0.35813 0.20515 0.02125 0.31700
O 	O 	0.31474 0.11255 0.96819 -0.42800
O 	O 	0.28263 0.15782 0.98280 -0.46800
C 	C 	0.28712 0.12762 0.96445 0.32100
S 	S 	0.47291 0.91090 0.42948 0.00100
C 	C 	0.47710 0.93522 0.38213 -0.01500
C 	C 	0.45326 0.96052 0.37836 -0.01600
S 	S 	0.42750 0.95867 0.42223 0.00400
C 	C 	0.44017 0.92595 0.45474 -0.00700
C 	C 	0.43529 0.92460 0.50307 -0.00700
S 	S 	0.42683 0.95952 0.53383 0.00300
C 	C 	0.44210 0.95102 0.58545 -0.01500
C 	C 	0.45675 0.91838 0.58751 -0.01600
S 	S 	0.45574 0.89819 0.53722 0.00200
C 	C 	0.42435 0.01206 0.70063 0.00200
C 	C 	0.41586 0.97705 0.70030 -0.02900
C 	C 	0.42110 0.95727 0.66244 -0.04200
C 	C 	0.43509 0.97225 0.62464 0.02400
C 	C 	0.44292 0.00742 0.62460 -0.04500
C 	C 	0.43750 0.02728 0.66243 -0.02600
H 	H 	0.40521 0.96520 0.72938 0.04500
H 	H 	0.41440 0.93030 0.66253 0.04700
H 	H 	0.45366 0.01923 0.59556 0.04700
H 	H 	0.44400 0.05431 0.66230 0.04800
C 	C 	0.51980 0.88593 0.69092 0.00200
C 	C 	0.52459 0.91766 0.66916 -0.02600
C 	C 	0.50394 0.92836 0.63550 -0.04400
C 	C 	0.47821 0.90750 0.62347 0.02400
C 	C 	0.47325 0.87593 0.64538 -0.04500
C 	C 	0.49382 0.86527 0.67918 -0.03000
H 	H 	0.54451 0.93384 0.67800 0.04900
H 	H 	0.50805 0.95271 0.61857 0.04700
H 	H 	0.45333 0.85977 0.63645 0.04600
H 	H 	0.48951 0.84105 0.69634 0.04200
C 	C 	0.54089 0.91028 0.27660 0.00200
C 	C 	0.52021 0.88509 0.29371 -0.03000
C 	C 	0.49957 0.89315 0.32841 -0.04500
C 	C 	0.49935 0.92647 0.34622 0.02400
C 	C 	0.51997 0.95166 0.32911 -0.04400
C 	C 	0.54056 0.94364 0.29434 -0.02600
H 	H 	0.51986 0.85943 0.27975 0.04300
H 	H 	0.48341 0.87366 0.34095 0.04600
H 	H 	0.51999 0.97745 0.34270 0.04700
H 	H 	0.55633 0.96330 0.28128 0.04800
C 	C 	0.42828 0.01242 0.25763 0.00200
C 	C 	0.44227 0.03075 0.29255 -0.02900
C 	C 	0.45067 0.01367 0.33186 -0.04500
C 	C 	0.44527 0.97817 0.33650 0.02500
C 	C 	0.43156 0.95975 0.30151 -0.04400
C 	C 	0.42304 0.97683 0.26224 -0.02500
H 	H 	0.44614 0.05829 0.28949 0.04300
H 	H 	0.46125 0.02804 0.35876 0.04600
H 	H 	0.42733 0.93229 0.30488 0.04700
H 	H 	0.41225 0.96246 0.23549 0.04800
Co	Co	0.65626 0.86522 0.98008 1.18100
Co	Co	0.69032 0.81259 0.91790 1.10000
O 	O 	0.63042 0.89818 0.01756 -0.36600
O 	O 	0.65735 0.86359 0.05790 -0.29700
O 	O 	0.64717 0.87885 0.91815 -0.40800
O 	O 	0.71014 0.85897 0.91272 -0.45000
C 	C 	0.63690 0.85645 0.88889 0.30000
C 	C 	0.63795 0.88929 0.05740 0.28400
O 	O 	0.64789 0.82470 0.88900 -0.41100
O 	O 	0.70040 0.87867 0.98257 -0.42900
C 	C 	0.71886 0.87674 0.94757 0.31300
O 	O 	0.63090 0.82405 0.98261 -0.42000
O 	O 	0.67528 0.79195 0.97449 -0.47600
C 	C 	0.64525 0.79419 0.98536 0.31900
Co	Co	0.15418 0.64137 0.99423 1.18100
Co	Co	0.18813 0.68930 0.06266 1.10100
O 	O 	0.12845 0.61319 0.95048 -0.35600
O 	O 	0.15948 0.64831 0.91726 -0.30800
O 	O 	0.14165 0.62478 0.05383 -0.40800
O 	O 	0.20580 0.64185 0.06463 -0.45700
C 	C 	0.13251 0.64620 0.08509 0.29800
C 	C 	0.13865 0.62428 0.91274 0.28500
O 	O 	0.14408 0.67769 0.08665 -0.41100
O 	O 	0.19736 0.62458 0.99352 -0.42200
C 	C 	0.21565 0.62626 0.02869 0.31500
O 	O 	0.13102 0.68406 0.99394 -0.42100
O 	O 	0.17634 0.71352 0.00689 -0.46900
C 	C 	0.14681 0.71310 0.99336 0.32100
S 	S 	0.92741 0.53691 0.44396 0.00300
C 	C 	0.94379 0.54548 0.39308 -0.01500
C 	C 	0.95927 0.57766 0.39219 -0.01600
S 	S 	0.95790 0.59737 0.44278 0.00200
C 	C 	0.93616 0.57121 0.47570 -0.00700
C 	C 	0.94030 0.56902 0.52408 -0.00800
S 	S 	0.97441 0.57904 0.55001 0.00200
C 	C 	0.97557 0.55357 0.59675 -0.01500
C 	C 	0.94890 0.53182 0.59959 -0.01600
S 	S 	0.92373 0.53793 0.55572 0.00400
C 	C 	0.03265 0.57141 0.71159 0.00200
C 	C 	0.01551 0.59865 0.69224 -0.02700
C 	C 	0.99756 0.59311 0.65393 -0.04500
C 	C 	0.99687 0.56036 0.63445 0.02400
C 	C 	0.01475 0.53339 0.65309 -0.04300
C 	C 	0.03248 0.53885 0.69158 -0.03000
H 	H 	0.01556 0.62389 0.70740 0.04700
H 	H 	0.98359 0.61402 0.64008 0.04600
H 	H 	0.01447 0.50806 0.63816 0.04600
H 	H 	0.04594 0.51775 0.70599 0.04300
C 	C 	0.92187 0.48060 0.71984 0.00100
C 	C 	0.93574 0.46192 0.68515 -0.03000
C 	C 	0.94427 0.47867 0.64568 -0.04600
C 	C 	0.93907 0.51416 0.64063 0.02500
C 	C 	0.92521 0.53288 0.67522 -0.04500
C 	C 	0.91655 0.51614 0.71466 -0.02600
H 	H 	0.93962 0.43441 0.68864 0.04200
H 	H 	0.95507 0.46410 0.61913 0.04500
H 	H 	0.92129 0.56037 0.67159 0.04700
H 	H 	0.90583 0.53076 0.74122 0.04700
C 	C 	0.92569 0.48580 0.27687 0.00200
C 	C 	0.91764 0.52093 0.27766 -0.03000
C 	C 	0.92318 0.54033 0.31577 -0.04200
C 	C 	0.93699 0.52483 0.35335 0.02400
C 	C 	0.94455 0.48961 0.35282 -0.04500
C 	C 	0.93888 0.47015 0.31475 -0.02600
H 	H 	0.90695 0.53313 0.24885 0.04500
H 	H 	0.91672 0.56737 0.31611 0.04700
H 	H 	0.95518 0.47742 0.38169 0.04700
H 	H 	0.94505 0.44303 0.31453 0.04800
C 	C 	0.02018 0.61184 0.28715 0.00100
C 	C 	0.02488 0.57936 0.30698 -0.02600
C 	C 	0.00507 0.56820 0.34139 -0.04500
C 	C 	0.98022 0.58933 0.35602 0.02400
C 	C 	0.97536 0.62166 0.33602 -0.04500
C 	C 	0.99512 0.63281 0.30154 -0.03000
H 	H 	0.04412 0.56296 0.29612 0.04800
H 	H 	0.00911 0.54325 0.35682 0.04700
H 	H 	0.95609 0.63801 0.34690 0.04600
H 	H 	0.99091 0.65767 0.28594 0.04300
Co	Co	0.84877 0.35457 0.00450 1.18300
Co	Co	0.79617 0.32752 0.94062 1.10400
O 	O 	0.88064 0.37719 0.04553 -0.35300
O 	O 	0.84846 0.34520 0.08145 -0.30400
O 	O 	0.86060 0.37005 0.94417 -0.39900
O 	O 	0.83714 0.30360 0.93008 -0.44600
C 	C 	0.83978 0.38411 0.91699 0.29800
C 	C 	0.87272 0.36533 0.08396 0.28300
O 	O 	0.80967 0.37557 0.91966 -0.43000
O 	O 	0.85902 0.30615 0.99913 -0.42700
C 	C 	0.85343 0.28914 0.96240 0.31600
O 	O 	0.81229 0.38345 0.01285 -0.42700
O 	O 	0.77951 0.33834 0.00040 -0.46200
C 	C 	0.78457 0.36878 0.01777 0.32100
C 	C 	0.05450 0.95149 0.84474 0.10200
N 	N 	0.04921 0.98497 0.85375 -0.17200
C 	C 	0.07353 0.00281 0.83591 0.10200
C 	C 	0.08168 0.03818 0.85012 -0.07500
C 	C 	0.05708 0.06549 0.84989 0.09000
C 	C 	0.11440 0.04637 0.86393 0.04300
C 	C 	0.12233 0.04661 0.90911 -0.05400
C 	C 	0.15243 0.05738 0.92248 -0.02800
C 	C 	0.17536 0.06636 0.89063 0.01200
C 	C 	0.13719 0.05551 0.83206 -0.05300
N 	N 	0.02719 0.05971 0.83601 -0.12700
C 	C 	0.05865 0.09509 0.87522 -0.05900
C 	C 	0.00975 0.08598 0.85199 0.09000
C 	C 	0.97476 0.08430 0.85528 -0.07500
C 	C 	0.95680 0.11365 0.87351 0.04200
C 	C 	0.93826 0.17270 0.86719 -0.02800
C 	C 	0.94136 0.11034 0.91456 -0.05300
C 	C 	0.92471 0.13825 0.93212 -0.03000
C 	C 	0.92329 0.16960 0.90862 0.01200
N 	N 	0.96385 0.02160 0.85638 -0.17200
C 	C 	0.93810 0.00219 0.84806 0.10100
C 	C 	0.91527 0.02153 0.82609 -0.06200
C 	C 	0.92781 0.05424 0.82095 -0.06100
C 	C 	0.93161 0.96940 0.87195 -0.07400
C 	C 	0.89889 0.96006 0.88473 0.04200
C 	C 	0.85424 0.92086 0.88009 -0.02900
C 	C 	0.83827 0.93975 0.91268 0.01100
C 	C 	0.85238 0.96930 0.93057 -0.02900
C 	C 	0.88266 0.97938 0.91671 -0.05400
N 	N 	0.98467 0.94480 0.85606 -0.12700
C 	C 	0.99070 0.91126 0.91695 -0.05900
C 	C 	0.00472 0.92415 0.87877 0.08800
C 	C 	0.03916 0.92313 0.87001 -0.07400
C 	C 	0.05781 0.89284 0.88462 0.04200
C 	C 	0.05009 0.85991 0.86900 -0.05200
C 	C 	0.06613 0.83093 0.88526 -0.02900
C 	C 	0.09008 0.83469 0.91710 0.01300
C 	C 	0.09824 0.86768 0.93210 -0.02900
C 	C 	0.08221 0.89669 0.91581 -0.05300
C 	C 	0.08237 0.94782 0.82091 -0.06100
C 	C 	0.09457 0.98063 0.81534 -0.06100
C 	C 	0.16769 0.06498 0.84532 -0.03000
C 	C 	0.02834 0.10817 0.87662 -0.06000
C 	C 	0.95770 0.05330 0.83995 0.10200
C 	C 	0.96034 0.92424 0.91741 -0.06000
C 	C 	0.95746 0.94435 0.87950 0.09000
C 	C 	0.88445 0.93093 0.86624 -0.05200
H 	H 	0.03559 0.99355 0.88046 0.09300
H 	H 	0.97985 0.01664 0.88214 0.09300
H 	H 	0.05968 0.80552 0.87357 0.04800
H 	H 	0.11669 0.87076 0.95677 0.04500
H 	H 	0.03138 0.85675 0.84474 0.05000
H 	H 	0.08832 0.92204 0.92801 0.04800
H 	H 	0.15785 0.05910 0.95756 0.04400
H 	H 	0.13120 0.05545 0.79709 0.04900
H 	H 	0.18515 0.07204 0.82047 0.04600
H 	H 	0.10483 0.03958 0.93390 0.04600
H 	H 	0.91297 0.13556 0.96395 0.04500
H 	H 	0.94242 0.08621 0.93291 0.04600
C 	C 	0.95515 0.14489 0.84984 -0.05300
H 	H 	0.93694 0.19670 0.84860 0.04700
H 	H 	0.84337 0.89816 0.86590 0.04300
H 	H 	0.89676 0.91598 0.84138 0.05000
H 	H 	0.89365 0.00192 0.93115 0.04700
H 	H 	0.84008 0.98414 0.95555 0.04600
H 	H 	0.09633 0.92442 0.81949 0.05500
H 	H 	0.11930 0.98618 0.80907 0.05300
H 	H 	0.07671 0.10042 0.89971 0.05000
H 	H 	0.01959 0.12482 0.90257 0.05300
H 	H 	0.89019 0.01573 0.82574 0.05100
H 	H 	0.91373 0.07735 0.81645 0.05100
H 	H 	0.00346 0.90260 0.94616 0.05000
H 	H 	0.94609 0.92714 0.94703 0.05300
H 	H 	0.96685 0.14756 0.81799 0.05000
C 	C 	0.87078 0.25698 0.95379 -0.09900
C 	C 	0.85481 0.22759 0.93800 0.08900
C 	C 	0.87218 0.19890 0.92414 -0.07800
C 	C 	0.90535 0.19889 0.92677 0.01300
C 	C 	0.92118 0.22736 0.94525 0.02300
C 	C 	0.90386 0.25631 0.95839 0.00200
H 	H 	0.85990 0.17664 0.91102 0.06300
H 	H 	0.91620 0.27861 0.97127 0.05400
I 	I 	0.80451 0.22498 0.93717 -0.17700
I 	I 	0.97110 0.22709 0.95439 -0.10600
C 	C 	0.87068 0.44609 0.80968 0.09500
C 	C 	0.89238 0.42640 0.83456 0.08900
N 	N 	0.88205 0.40728 0.86963 -0.08700
C 	C 	0.85078 0.40682 0.88079 -0.03200
C 	C 	0.82919 0.42709 0.85636 0.04200
N 	N 	0.83959 0.44627 0.82126 -0.11400
N 	N 	0.88075 0.46394 0.77337 -0.11500
N 	N 	0.92337 0.42572 0.82249 -0.10300
H 	H 	0.80431 0.42747 0.86511 0.03700
C 	C 	0.91171 0.46276 0.76072 0.04900
C 	C 	0.93349 0.44356 0.78611 0.00200
H 	H 	0.95825 0.44270 0.77674 0.04200
C 	C 	0.89563 0.41793 0.20175 0.09600
C 	C 	0.90806 0.42878 0.16069 0.09100
N 	N 	0.90088 0.41108 0.12332 -0.08800
C 	C 	0.88160 0.38294 0.12518 -0.02000
C 	C 	0.86959 0.37177 0.16642 0.04200
N 	N 	0.87682 0.38954 0.20386 -0.11000
N 	N 	0.90190 0.43635 0.23889 -0.11400
N 	N 	0.92656 0.45740 0.15846 -0.10100
H 	H 	0.85445 0.34928 0.16861 0.04800
C 	C 	0.92004 0.46538 0.23661 0.04900
C 	C 	0.93286 0.47587 0.19561 0.00300
H 	H 	0.94768 0.49862 0.19336 0.04500
C 	C 	0.13239 0.74439 0.97438 -0.10200
C 	C 	0.10470 0.75857 0.99302 0.08300
C 	C 	0.09119 0.78816 0.97408 -0.07700
C 	C 	0.10510 0.80394 0.93688 0.01100
C 	C 	0.13291 0.78999 0.91848 0.02200
C 	C 	0.14645 0.76036 0.93736 -0.00100
H 	H 	0.06988 0.79900 0.98840 0.06100
H 	H 	0.16776 0.74956 0.92300 0.05200
I 	I 	0.08356 0.73703 0.05101 -0.10000
I 	I 	0.15482 0.81298 0.86206 -0.10500
C 	C 	0.08246 0.58784 0.83107 0.09100
C 	C 	0.08958 0.60728 0.79279 0.09600
N 	N 	0.07336 0.60157 0.75461 -0.11400
C 	C 	0.05042 0.57691 0.75301 0.04900
C 	C 	0.04337 0.55743 0.79131 0.00300
N 	N 	0.05952 0.56331 0.82959 -0.10200
N 	N 	0.09852 0.59372 0.86933 -0.08900
N 	N 	0.11263 0.63167 0.79421 -0.11100
H 	H 	0.02495 0.53799 0.79067 0.04200
C 	C 	0.12160 0.61823 0.87092 -0.02200
C 	C 	0.12887 0.63748 0.83245 0.04200
H 	H 	0.14720 0.65701 0.83303 0.04800
C 	C 	0.08266 0.64566 0.18633 0.08900
C 	C 	0.06797 0.61323 0.18380 0.09700
N 	N 	0.04773 0.60293 0.21635 -0.11400
C 	C 	0.04149 0.62382 0.25142 0.04900
C 	C 	0.05632 0.65622 0.25395 0.00200
N 	N 	0.07654 0.66651 0.22129 -0.10600
N 	N 	0.10320 0.65578 0.15410 -0.09200
N 	N 	0.07436 0.59224 0.14906 -0.11100
H 	H 	0.05206 0.67289 0.28199 0.04000
C 	C 	0.10984 0.63475 0.11933 -0.02800
C 	C 	0.09498 0.60232 0.11674 0.04500
H 	H 	0.09975 0.58530 0.08923 0.04700
C 	C 	0.74777 0.89771 0.94526 -0.10100
C 	C 	0.75013 0.92534 0.91477 0.08800
C 	C 	0.77964 0.94043 0.90626 -0.07800
C 	C 	0.80683 0.92834 0.92812 0.01100
C 	C 	0.80402 0.90258 0.96115 0.02200
C 	C 	0.77450 0.88746 0.96962 -0.00700
H 	H 	0.78162 0.96084 0.88160 0.06200
H 	H 	0.77261 0.86672 0.99382 0.04100
I 	I 	0.70947 0.94495 0.88147 -0.10100
I 	I 	0.84415 0.88532 0.99766 -0.11500
C 	C 	0.57082 0.88738 0.79113 0.09700
C 	C 	0.58429 0.85426 0.79042 0.08900
N 	N 	0.60549 0.84483 0.82217 -0.09100
C 	C 	0.61393 0.86723 0.85470 -0.02700
C 	C 	0.60035 0.90039 0.85535 0.04600
N 	N 	0.57909 0.90976 0.82355 -0.11000
N 	N 	0.54986 0.89693 0.75913 -0.11400
N 	N 	0.57630 0.83202 0.75768 -0.10500
H 	H 	0.60662 0.91855 0.88102 0.04800
C 	C 	0.54175 0.87467 0.72629 0.04900
C 	C 	0.55538 0.84158 0.72552 0.00200
H 	H 	0.54967 0.82379 0.69917 0.04000
C 	C 	0.60112 0.88664 0.16909 0.09000
C 	C 	0.58063 0.91516 0.16693 0.09700
N 	N 	0.56155 0.92241 0.20192 -0.11400
C 	C 	0.56198 0.90218 0.23909 0.04900
C 	C 	0.58273 0.87385 0.24137 0.00200
N 	N 	0.60185 0.86662 0.20628 -0.10300
N 	N 	0.61975 0.87899 0.13373 -0.08900
N 	N 	0.57973 0.93504 0.12965 -0.11000
H 	H 	0.58370 0.85780 0.27094 0.04200
C 	C 	0.61859 0.89864 0.09606 -0.02200
C 	C 	0.59831 0.92739 0.09419 0.04300
H 	H 	0.59731 0.94349 0.06468 0.04700
C 	C 	0.20627 0.08046 0.90478 0.01200
C 	C 	0.22758 0.06038 0.93014 0.02100
C 	C 	0.25452 0.07579 0.94850 -0.00300
C 	C 	0.26116 0.11072 0.94017 -0.10300
C 	C 	0.24172 0.12965 0.91070 0.08800
C 	C 	0.21392 0.11480 0.89435 -0.07900
H 	H 	0.27007 0.06070 0.96969 0.05300
H 	H 	0.19825 0.12994 0.87338 0.06200
I 	I 	0.22088 0.00641 0.93883 -0.10900
I 	I 	0.25543 0.17902 0.88618 -0.10900
C 	C 	0.39567 0.07977 0.77709 0.09600
C 	C 	0.40920 0.06904 0.81751 0.09100
N 	N 	0.40262 0.08652 0.85527 -0.08800
C 	C 	0.38289 0.11432 0.85443 -0.02000
C 	C 	0.36982 0.12541 0.81380 0.04200
N 	N 	0.37644 0.10786 0.77596 -0.11000
N 	N 	0.40123 0.06145 0.73962 -0.11300
N 	N 	0.42806 0.04069 0.81881 -0.10200
H 	H 	0.35430 0.14763 0.81241 0.04800
C 	C 	0.41971 0.03264 0.74102 0.04900
C 	C 	0.43364 0.02231 0.78136 0.00300
H 	H 	0.44869 0.99970 0.78288 0.04500
C 	C 	0.37604 0.04755 0.16933 0.09500
C 	C 	0.39735 0.06780 0.14454 0.09000
N 	N 	0.38657 0.08717 0.10996 -0.08600
C 	C 	0.35521 0.08735 0.09922 -0.03100
C 	C 	0.33401 0.06656 0.12360 0.04200
N 	N 	0.34487 0.04711 0.15818 -0.11400
N 	N 	0.38658 0.02936 0.20510 -0.11500
N 	N 	0.42842 0.06874 0.15618 -0.10200
H 	H 	0.30908 0.06597 0.11519 0.03700
C 	C 	0.41762 0.03074 0.21732 0.04900
C 	C 	0.43900 0.05057 0.19205 0.00300
H 	H 	0.46382 0.05163 0.20107 0.04400
C 	C 	0.40836 0.29734 0.05397 0.01300
C 	C 	0.37499 0.29691 0.05374 0.02100
C 	C 	0.35887 0.26697 0.04136 -0.00200
C 	C 	0.37568 0.23716 0.02980 -0.10100
C 	C 	0.40910 0.23758 0.03002 0.09100
C 	C 	0.42522 0.26777 0.04157 -0.07800
H 	H 	0.33318 0.26665 0.04157 0.03000
H 	H 	0.45090 0.26798 0.04202 0.06300
I 	I 	0.34830 0.34055 0.07393 -0.11600
I 	I 	0.43594 0.19242 0.01664 -0.09500
C 	C 	0.24509 0.60611 0.03034 -0.10200
C 	C 	0.27121 0.61537 0.00365 0.08200
C 	C 	0.30054 0.59938 0.01058 -0.07500
C 	C 	0.30414 0.57443 0.04415 0.01000
C 	C 	0.27761 0.56374 0.06902 0.02200
C 	C 	0.24825 0.57963 0.06203 -0.00100
H 	H 	0.32088 0.60739 0.99109 0.06000
H 	H 	0.22806 0.57203 0.08209 0.05200
I 	I 	0.26771 0.65511 0.95488 -0.13100
I 	I 	0.28143 0.52433 0.11814 -0.10800
C 	C 	0.75872 0.38713 0.04043 -0.10200
C 	C 	0.73841 0.36969 0.07026 0.08700
C 	C 	0.71098 0.38602 0.08550 -0.07800
C 	C 	0.70453 0.42034 0.07346 0.01200
C 	C 	0.72663 0.43891 0.04756 0.02200
C 	C 	0.75322 0.42205 0.03043 -0.00300
H 	H 	0.69467 0.37203 0.10682 0.06200
H 	H 	0.76940 0.43599 0.00888 0.05500
I 	I 	0.75018 0.32034 0.09683 -0.10300
I 	I 	0.72154 0.49279 0.03607 -0.10900
C 	C 	0.62881 0.76414 0.00455 -0.09700
C 	C 	0.60125 0.75079 0.98449 0.07800
C 	C 	0.58703 0.72104 0.00196 -0.07000
C 	C 	0.60010 0.70426 0.03906 0.00900
C 	C 	0.62739 0.71778 0.05941 0.02400
C 	C 	0.64162 0.74757 0.04204 -0.00300
H 	H 	0.56600 0.71067 0.98632 0.05900
H 	H 	0.66273 0.75780 0.05763 0.05300
I 	I 	0.58149 0.77369 0.92639 -0.10200
I 	I 	0.64758 0.69376 0.11639 -0.10600
