data_crystal

_cell_length_a 25.95402
_cell_length_b 26.47133
_cell_length_c 26.34195
_cell_angle_alpha 95.50464
_cell_angle_beta  95.50472
_cell_angle_gamma 125.84166

_symmetry_space_group_name_	'P 1'
_symmetry_space_group_name_H-M	'P 1'

loop_
_symmetry_equiv_pos_as_xyz
  x,y,z

loop_
_atom_site_label
_atom_site_type_symbol
_atom_site_fract_x
_atom_site_fract_y
_atom_site_fract_z
_atom_site_charge
C 	C 	0.00584 0.06696 0.99508 0.11100
N 	N 	0.06626 0.01146 0.98683 -0.13600
N 	N 	0.07141 0.10340 0.00185 -0.12700
C 	C 	0.05536 0.99249 0.44506 -0.04000
H 	H 	0.07008 0.97273 0.52052 0.04500
S 	S 	0.03918 0.01661 0.34720 -0.04100
H 	H 	0.01880 0.96344 0.31271 0.03300
S 	S 	0.01636 0.91247 0.88217 -0.05300
H 	H 	0.07965 0.93664 0.89887 0.03800
H 	H 	0.00444 0.14004 0.93181 0.04100
C 	C 	0.00067 0.97493 0.97904 0.11100
N 	N 	0.97049 0.00273 0.98331 -0.13100
C 	C 	0.10161 0.07564 0.99728 0.10500
C 	C 	0.89101 0.94981 0.43827 0.12600
N 	N 	0.95532 0.98345 0.43791 -0.14100
C 	C 	0.98487 0.95497 0.44114 0.13100
N 	N 	0.95021 0.89303 0.44535 -0.14000
C 	C 	0.88638 0.85974 0.44744 0.12500
N 	N 	0.85645 0.88783 0.44294 -0.14000
Cu	Cu	0.68924 0.29653 0.01892 0.92900
Cu	Cu	0.70985 0.26972 0.90157 0.86500
Cu	Cu	0.70630 0.37695 0.93671 0.89300
Cu	Cu	0.71530 0.42985 0.04781 0.89500
C 	C 	0.72323 0.35850 0.12465 0.29500
O 	O 	0.60180 0.26858 0.03258 -0.36600
C 	C 	0.66668 0.31538 0.82713 0.28600
O 	O 	0.74457 0.39182 0.00775 -0.63500
O 	O 	0.66214 0.28652 0.94372 -0.64500
O 	O 	0.72068 0.24365 0.01562 -0.36400
O 	O 	0.77888 0.29120 0.95383 -0.44100
O 	O 	0.74116 0.41406 0.11466 -0.38700
O 	O 	0.75647 0.46596 0.93183 -0.38500
C 	C 	0.77027 0.51162 0.96890 0.28600
C 	C 	0.57896 0.30050 0.02352 0.29100
O 	O 	0.61533 0.35572 0.00945 -0.38500
O 	O 	0.73910 0.49878 0.00810 -0.38300
O 	O 	0.72531 0.31936 0.09138 -0.36400
C 	C 	0.76722 0.25749 0.99035 0.29100
O 	O 	0.67076 0.35733 0.86237 -0.38000
O 	O 	0.66120 0.26567 0.83988 -0.42000
H 	H 	0.79217 0.41551 0.01394 0.16600
H 	H 	0.61480 0.25931 0.93077 0.17300
Cu	Cu	0.69329 0.29162 0.42432 0.92800
Cu	Cu	0.69880 0.24982 0.53629 0.86500
Cu	Cu	0.59622 0.25828 0.49586 0.89500
Cu	Cu	0.56022 0.26963 0.38654 0.89500
C 	C 	0.65015 0.28277 0.31880 0.29200
O 	O 	0.72406 0.38095 0.42119 -0.37100
C 	C 	0.64479 0.28669 0.60842 0.28800
O 	O 	0.59257 0.23348 0.42393 -0.63700
O 	O 	0.69088 0.30489 0.49867 -0.64500
O 	O 	0.74479 0.25812 0.42755 -0.36800
O 	O 	0.68353 0.19010 0.47939 -0.44300
O 	O 	0.59004 0.26065 0.32152 -0.38200
O 	O 	0.50338 0.20618 0.49093 -0.38600
C 	C 	0.46183 0.20004 0.45303 0.29800
C 	C 	0.69032 0.40132 0.43294 0.28700
O 	O 	0.62985 0.36117 0.43795 -0.38800
O 	O 	0.48118 0.23610 0.41739 -0.39200
O 	O 	0.68176 0.27013 0.35079 -0.36400
C 	C 	0.72498 0.20761 0.44792 0.29400
O 	O 	0.60442 0.28283 0.57059 -0.38000
O 	O 	0.69551 0.28952 0.59931 -0.42100
H 	H 	0.56873 0.18720 0.41246 0.16400
H 	H 	0.71686 0.34964 0.51685 0.17600
C 	C 	0.59703 0.26257 0.73983 -0.04200
C 	C 	0.65360 0.31628 0.77161 -0.09300
C 	C 	0.70117 0.36586 0.74867 0.09900
C 	C 	0.69358 0.35796 0.69432 -0.04100
C 	C 	0.64082 0.30091 0.66275 -0.09300
C 	C 	0.59033 0.25402 0.68551 0.10100
N 	N 	0.53621 0.20011 0.65568 -0.20100
H 	H 	0.55948 0.22578 0.75747 0.04700
H 	H 	0.73094 0.39487 0.67662 0.04500
N 	N 	0.75511 0.42011 0.77835 -0.20100
H 	H 	0.49993 0.16519 0.67299 0.08300
H 	H 	0.52897 0.19267 0.61523 0.09100
H 	H 	0.76301 0.42746 0.81880 0.08900
H 	H 	0.79007 0.45603 0.76088 0.08300
C 	C 	0.68083 0.36538 0.20343 -0.04200
C 	C 	0.71341 0.34629 0.17788 -0.09400
C 	C 	0.73301 0.31323 0.20250 0.11500
C 	C 	0.71024 0.29097 0.24771 -0.04500
C 	C 	0.67610 0.30876 0.27251 -0.08800
C 	C 	0.66578 0.35041 0.25210 0.10300
N 	N 	0.64406 0.37812 0.27985 -0.19800
H 	H 	0.66798 0.39286 0.18576 0.04300
H 	H 	0.72095 0.26150 0.26444 0.06000
N 	N 	0.77716 0.30700 0.18542 -0.19800
H 	H 	0.63322 0.40595 0.26329 0.08200
H 	H 	0.64232 0.37633 0.31909 0.07600
H 	H 	0.80642 0.33551 0.16068 0.10300
H 	H 	0.78724 0.27818 0.20100 0.09000
C 	C 	0.73336 0.56245 0.48526 -0.07600
C 	C 	0.76806 0.59726 0.44851 0.01700
C 	C 	0.78205 0.56912 0.40939 -0.00800
C 	C 	0.75731 0.50535 0.40525 -0.00500
C 	C 	0.72073 0.46980 0.44098 -0.09700
C 	C 	0.71101 0.49945 0.48253 0.05700
C 	C 	0.79249 0.66419 0.45294 0.00300
S 	S 	0.83202 0.61372 0.36641 -0.03600
H 	H 	0.76598 0.48316 0.37388 0.04100
S 	S 	0.67558 0.46009 0.53337 -0.05000
H 	H 	0.72474 0.58479 0.51654 0.05400
C 	C 	0.76280 0.68188 0.41888 0.00700
C 	C 	0.79218 0.74623 0.41896 -0.03400
C 	C 	0.84973 0.79309 0.45405 -0.03000
C 	C 	0.87499 0.77503 0.49208 0.03000
C 	C 	0.84715 0.71083 0.49053 -0.05900
S 	S 	0.68852 0.62405 0.37672 -0.04300
H 	H 	0.77124 0.75980 0.39085 0.04800
S 	S 	0.93903 0.83198 0.54336 -0.04100
H 	H 	0.86826 0.69712 0.51834 0.05000
H 	H 	0.72240 0.46847 0.57007 0.03300
H 	H 	0.69955 0.60925 0.32971 0.03300
H 	H 	0.91435 0.84227 0.58343 0.03700
H 	H 	0.79466 0.60703 0.32210 0.03200
C 	C 	0.83457 0.15766 0.44430 -0.07600
C 	C 	0.78911 0.09218 0.42595 0.01500
C 	C 	0.72346 0.06596 0.40989 -0.00400
C 	C 	0.70357 0.10496 0.41450 -0.00200
C 	C 	0.74855 0.17000 0.43520 -0.09900
C 	C 	0.81472 0.19667 0.44917 0.05400
C 	C 	0.81014 0.05104 0.42698 0.00400
S 	S 	0.66573 0.98437 0.38442 -0.04600
H 	H 	0.65279 0.08442 0.40320 0.03700
S 	S 	0.87269 0.27809 0.47533 -0.05600
H 	H 	0.88522 0.17796 0.45612 0.05300
C 	C 	0.83382 0.03956 0.38488 0.00400
C 	C 	0.85814 0.00450 0.38836 -0.02300
C 	C 	0.85900 0.98061 0.43348 -0.03600
C 	C 	0.83391 0.99090 0.47514 0.02700
C 	C 	0.80948 0.02584 0.47157 -0.05600
S 	S 	0.83383 0.06932 0.32792 -0.03800
H 	H 	0.87730 0.99657 0.35625 0.04200
S 	S 	0.83556 0.96291 0.53285 -0.04600
H 	H 	0.79110 0.03454 0.50392 0.04800
H 	H 	0.87753 0.28766 0.52814 0.02200
H 	H 	0.88993 0.12949 0.33337 0.03800
H 	H 	0.89363 0.00719 0.56559 0.04000
H 	H 	0.66276 0.97384 0.33191 0.03800
C 	C 	0.15224 0.05661 0.40854 -0.06100
C 	C 	0.18964 0.05968 0.45253 0.00400
C 	C 	0.15981 0.02942 0.49316 0.01000
C 	C 	0.09297 0.99610 0.48924 -0.03600
C 	C 	0.08526 0.02284 0.40438 0.03400
C 	C 	0.25997 0.09431 0.45547 0.01600
S 	S 	0.20550 0.03203 0.54866 -0.03800
H 	H 	0.17521 0.07975 0.37720 0.04900
C 	C 	0.28491 0.06403 0.43350 -0.00400
C 	C 	0.35147 0.09862 0.43449 -0.00500
C 	C 	0.39342 0.16310 0.45735 -0.09400
C 	C 	0.36872 0.19283 0.48085 0.06000
C 	C 	0.30215 0.15840 0.47952 -0.07500
S 	S 	0.23326 0.98308 0.40440 -0.04900
H 	H 	0.37051 0.07563 0.41669 0.03000
S 	S 	0.42066 0.27305 0.51203 -0.04200
H 	H 	0.28304 0.18150 0.49696 0.05400
H 	H 	0.21066 0.97699 0.35332 0.03400
H 	H 	0.42861 0.31064 0.47663 0.03900
H 	H 	0.20992 0.98296 0.53974 0.03400
C 	C 	0.90067 0.68795 0.98856 -0.08300
C 	C 	0.87050 0.70586 0.95580 0.01500
C 	C 	0.81075 0.65882 0.92268 -0.00700
C 	C 	0.78028 0.59473 0.92470 -0.00100
C 	C 	0.80854 0.57713 0.95989 -0.09100
C 	C 	0.86987 0.62394 0.99098 0.04900
C 	C 	0.89960 0.77391 0.95921 0.00900
S 	S 	0.77249 0.67972 0.88009 -0.03800
H 	H 	0.73334 0.55872 0.90040 0.04100
S 	S 	0.90816 0.60300 0.03350 -0.06100
H 	H 	0.94717 0.72403 0.01340 0.06000
C 	C 	0.88894 0.80570 0.99794 -0.01500
C 	C 	0.92066 0.87110 0.00301 -0.01100
C 	C 	0.96261 0.90522 0.96948 -0.04000
C 	C 	0.97054 0.87273 0.92894 0.03800
C 	C 	0.93978 0.80752 0.92456 -0.06600
S 	S 	0.83625 0.76414 0.04043 -0.02900
H 	H 	0.91375 0.89571 0.03376 0.04400
H 	H 	0.94697 0.78286 0.89410 0.05200
H 	H 	0.88934 0.60137 0.08054 0.03300
H 	H 	0.86986 0.76166 0.08228 0.03500
H 	H 	0.73538 0.69059 0.90569 0.03600
C 	C 	0.89832 0.23866 0.02918 -0.08200
C 	C 	0.86898 0.17656 0.00327 0.02800
C 	C 	0.80440 0.13964 0.97635 -0.02100
C 	C 	0.77072 0.16588 0.97415 0.00200
C 	C 	0.80088 0.22877 0.99834 -0.11400
C 	C 	0.86468 0.26499 0.02674 0.07300
C 	C 	0.90706 0.15146 0.00266 0.01200
S 	S 	0.76585 0.06117 0.94419 -0.04200
H 	H 	0.72150 0.13785 0.95252 0.02000
S 	S 	0.90271 0.34307 0.05963 -0.05400
H 	H 	0.94770 0.26684 0.05045 0.05700
C 	C 	0.94381 0.16054 0.96369 -0.00400
C 	C 	0.97671 0.13350 0.96211 -0.02400
C 	C 	0.97304 0.09708 0.99888 -0.03600
C 	C 	0.93740 0.08913 0.03854 0.03900
C 	C 	0.90475 0.11644 0.04024 -0.06200
S 	S 	0.94800 0.20464 0.91616 -0.04500
S 	S 	0.93459 0.04649 0.08693 -0.03600
H 	H 	0.87696 0.10989 0.07049 0.05300
H 	H 	0.89055 0.34180 0.10914 0.03900
H 	H 	0.89720 0.16526 0.87550 0.03200
H 	H 	0.98584 0.08683 0.12705 0.03900
H 	H 	0.77872 0.06170 0.89492 0.03200
C 	C 	0.42244 0.26977 0.04826 -0.07600
C 	C 	0.37667 0.21119 0.01500 0.02500
C 	C 	0.39753 0.18181 0.98482 -0.01400
C 	C 	0.46375 0.21134 0.98806 -0.00900
C 	C 	0.50958 0.26994 0.02130 -0.08700
C 	C 	0.48869 0.29890 0.05208 0.06000
C 	C 	0.30693 0.18010 0.01305 0.00900
S 	S 	0.34118 0.10766 0.94346 -0.04300
H 	H 	0.47968 0.18885 0.96452 0.03200
S 	S 	0.54473 0.36984 0.09735 -0.07200
H 	H 	0.40642 0.29207 0.07189 0.05400
C 	C 	0.27415 0.14102 0.04873 0.00800
C 	C 	0.20735 0.10887 0.04424 -0.04000
C 	C 	0.17262 0.11488 0.00423 -0.01000
C 	C 	0.20559 0.15474 0.96896 0.01800
C 	C 	0.27258 0.18759 0.97393 -0.06500
S 	S 	0.31602 0.13099 0.09848 -0.04000
H 	H 	0.18213 0.07829 0.07140 0.04900
S 	S 	0.16321 0.16136 0.91691 -0.04200
H 	H 	0.29778 0.21769 0.94649 0.05000
H 	H 	0.56379 0.42057 0.07372 0.03600
H 	H 	0.33979 0.17779 0.14103 0.03500
H 	H 	0.14190 0.11394 0.87555 0.03700
H 	H 	0.32420 0.06036 0.97100 0.03500
