data_crystal

_cell_length_a 37.78627
_cell_length_b 37.94352
_cell_length_c 19.89744
_cell_angle_alpha 91.48734
_cell_angle_beta  90.95250
_cell_angle_gamma 90.07661

_symmetry_space_group_name_	'P 1'
_symmetry_space_group_name_H-M	'P 1'

loop_
_symmetry_equiv_pos_as_xyz
  x,y,z

loop_
_atom_site_label
_atom_site_type_symbol
_atom_site_fract_x
_atom_site_fract_y
_atom_site_fract_z
_atom_site_charge
Cd	Cd	0.01213 0.87175 0.24829 1.24200
Cd	Cd	0.99593 0.93347 0.38238 1.15000
O 	O 	0.02494 0.81037 0.27731 -0.32100
O 	O 	0.01849 0.82613 0.17201 -0.34400
C 	C 	0.02471 0.80112 0.21407 0.27500
O 	O 	0.99267 0.91950 0.19609 -0.38800
O 	O 	0.00748 0.95773 0.28312 -0.53400
C 	C 	0.98939 0.95041 0.22733 0.27300
C 	C 	0.94510 0.87240 0.31203 0.30100
O 	O 	0.04435 0.89872 0.35566 -0.45500
O 	O 	0.94370 0.85413 0.25543 -0.30600
O 	O 	0.97646 0.88237 0.33176 -0.55400
C 	C 	0.07039 0.90765 0.31743 0.29600
O 	O 	0.06862 0.89560 0.25541 -0.35800
Cd	Cd	0.97943 0.87965 0.95522 1.23200
Cd	Cd	0.99054 0.94490 0.83209 1.17300
O 	O 	0.01654 0.82633 0.94960 -0.32800
O 	O 	0.97984 0.83608 0.03228 -0.35800
C 	C 	0.00225 0.81466 0.00364 0.29400
O 	O 	0.94631 0.92365 0.99320 -0.45100
O 	O 	0.94586 0.95886 0.90160 -0.54000
C 	C 	0.94738 0.95522 0.96728 0.26500
C 	C 	0.03795 0.92703 0.96477 0.29800
O 	O 	0.97411 0.88505 0.82396 -0.45700
O 	O 	0.03390 0.91117 0.02171 -0.29000
O 	O 	0.01846 0.91536 0.91504 -0.54000
C 	C 	0.94329 0.86946 0.82545 0.25600
O 	O 	0.93324 0.86090 0.88533 -0.42300
C 	C 	0.00900 0.67090 0.94561 0.12200
N 	N 	0.02697 0.67128 0.88708 -0.14100
C 	C 	0.02564 0.64307 0.84380 0.12900
N 	N 	0.00630 0.61434 0.85926 -0.13900
C 	C 	0.98885 0.61353 0.91820 0.12000
N 	N 	0.98993 0.64192 0.96124 -0.14700
C 	C 	0.04455 0.65903 0.24392 0.12200
N 	N 	0.03569 0.62789 0.21281 -0.14100
C 	C 	0.03275 0.59819 0.24922 0.12500
N 	N 	0.03809 0.59999 0.31692 -0.14300
C 	C 	0.04673 0.63110 0.34804 0.13000
N 	N 	0.05027 0.66047 0.31144 -0.13900
Cd	Cd	0.82324 0.92580 0.74696 1.23900
Cd	Cd	0.88767 0.92493 0.87787 1.18300
O 	O 	0.76596 0.89578 0.76097 -0.31900
O 	O 	0.77627 0.92882 0.67465 -0.34900
C 	C 	0.75370 0.90964 0.70623 0.27400
O 	O 	0.86494 0.96389 0.71544 -0.41600
O 	O 	0.90953 0.93831 0.77687 -0.45600
C 	C 	0.89805 0.96366 0.73815 0.23600
C 	C 	0.81490 0.97147 0.86155 0.28600
O 	O 	0.86166 0.87973 0.81417 -0.44300
O 	O 	0.79344 0.98003 0.81257 -0.32000
O 	O 	0.83155 0.94192 0.85214 -0.55200
C 	C 	0.87240 0.86806 0.75578 0.30100
O 	O 	0.85588 0.87997 0.70308 -0.36000
Cd	Cd	0.84508 0.97815 0.48139 1.23900
Cd	Cd	0.90400 0.98739 0.34826 1.14200
O 	O 	0.78694 0.95132 0.45525 -0.32300
O 	O 	0.80270 0.96655 0.55864 -0.35600
C 	C 	0.77827 0.95366 0.51802 0.28100
O 	O 	0.89573 0.99403 0.53410 -0.39500
O 	O 	0.91712 0.01995 0.44105 -0.60800
C 	C 	0.92240 0.00736 0.50118 0.29800
C 	C 	0.88239 0.91792 0.43298 0.30000
O 	O 	0.84711 0.00973 0.36402 -0.45400
O 	O 	0.86890 0.91203 0.49168 -0.30100
O 	O 	0.87295 0.94715 0.40575 -0.56100
C 	C 	0.83766 0.03892 0.39527 0.27200
O 	O 	0.83263 0.03612 0.45965 -0.37300
C 	C 	0.61265 0.93465 0.76685 0.12000
N 	N 	0.61520 0.93331 0.83488 -0.14000
C 	C 	0.58726 0.94260 0.87331 0.12700
N 	N 	0.55652 0.95281 0.84359 -0.14400
C 	C 	0.55398 0.95463 0.77562 0.12700
N 	N 	0.58195 0.94517 0.73709 -0.14200
C 	C 	0.63272 0.95615 0.48076 0.11900
N 	N 	0.63050 0.94517 0.41530 -0.14000
C 	C 	0.60122 0.95222 0.37763 0.12800
N 	N 	0.57400 0.97032 0.40569 -0.14300
C 	C 	0.57567 0.98058 0.47154 0.12800
N 	N 	0.60519 0.97383 0.50897 -0.14300
Cd	Cd	0.92127 0.11630 0.21650 1.23900
Cd	Cd	0.93457 0.06696 0.36195 1.15000
O 	O 	0.90075 0.17748 0.23064 -0.32200
O 	O 	0.91524 0.15541 0.13138 -0.35200
C 	C 	0.90357 0.18218 0.16662 0.28000
O 	O 	0.94816 0.06750 0.17852 -0.40500
O 	O 	0.92892 0.03516 0.26598 -0.57700
C 	C 	0.94982 0.03888 0.21457 0.29400
C 	C 	0.98379 0.12743 0.29581 0.29800
O 	O 	0.88435 0.09446 0.31964 -0.45200
O 	O 	0.98676 0.14156 0.23701 -0.31000
O 	O 	0.95245 0.11604 0.30951 -0.55500
C 	C 	0.86124 0.08128 0.27623 0.28200
O 	O 	0.86742 0.08776 0.21337 -0.36100
Cd	Cd	0.88547 0.11015 0.93052 1.23600
Cd	Cd	0.88535 0.03665 0.81698 1.17400
O 	O 	0.84946 0.16241 0.90410 -0.32300
O 	O 	0.87899 0.15855 0.99942 -0.35100
C 	C 	0.85937 0.17776 0.96047 0.27200
O 	O 	0.91475 0.06982 0.98706 -0.43900
O 	O 	0.92436 0.02913 0.90252 -0.53800
C 	C 	0.91823 0.03673 0.96638 0.26500
C 	C 	0.82774 0.06201 0.92764 0.30500
O 	O 	0.90134 0.09605 0.80462 -0.45300
O 	O 	0.82667 0.08219 0.98182 -0.30000
O 	O 	0.85060 0.07082 0.88348 -0.54500
C 	C 	0.93140 0.11261 0.81427 0.25200
O 	O 	0.93670 0.12492 0.87548 -0.41600
C 	C 	0.85708 0.32040 0.89643 0.11900
N 	N 	0.84488 0.31798 0.83184 -0.14000
C 	C 	0.84903 0.34535 0.79005 0.12700
N 	N 	0.86502 0.37538 0.81334 -0.14400
C 	C 	0.87692 0.37810 0.87799 0.12800
N 	N 	0.87320 0.35049 0.91946 -0.14100
C 	C 	0.87970 0.32153 0.18611 0.11900
N 	N 	0.88999 0.35308 0.16205 -0.14000
C 	C 	0.89145 0.38210 0.20365 0.12600
N 	N 	0.88190 0.37954 0.26888 -0.14400
C 	C 	0.87139 0.34815 0.29283 0.12800
N 	N 	0.87010 0.31926 0.25135 -0.14000
Cd	Cd	0.05539 0.05337 0.77502 1.23800
Cd	Cd	0.98380 0.06008 0.88667 1.18200
O 	O 	0.11041 0.08559 0.80344 -0.32400
O 	O 	0.10681 0.04816 0.71730 -0.35300
C 	C 	0.12621 0.07006 0.75340 0.28200
O 	O 	0.01603 0.01320 0.73573 -0.41400
O 	O 	0.96803 0.04127 0.78195 -0.45800
C 	C 	0.98179 0.01428 0.74863 0.22900
C 	C 	0.05702 0.01396 0.89487 0.28900
O 	O 	0.01302 0.10223 0.82661 -0.44200
O 	O 	0.08128 0.00310 0.85325 -0.32700
O 	O 	0.04106 0.04273 0.87812 -0.55100
C 	C 	0.00575 0.11064 0.76479 0.31000
O 	O 	0.02534 0.09629 0.71834 -0.36200
Cd	Cd	0.08918 0.04665 0.49909 1.24000
Cd	Cd	0.03867 0.02135 0.35299 1.14900
O 	O 	0.14287 0.08215 0.48302 -0.32300
O 	O 	0.12473 0.06950 0.58386 -0.34500
C 	C 	0.14829 0.08483 0.54755 0.27400
O 	O 	0.03920 0.02409 0.54034 -0.38500
O 	O 	0.02612 0.99104 0.44518 -0.55800
C 	C 	0.01642 0.00529 0.50299 0.27800
C 	C 	0.04440 0.09687 0.43660 0.29700
O 	O 	0.09642 0.00945 0.38648 -0.45800
O 	O 	0.05396 0.10786 0.49699 -0.30000
O 	O 	0.05978 0.06845 0.41463 -0.55500
C 	C 	0.10684 0.98314 0.42281 0.29900
O 	O 	0.11246 0.99062 0.48646 -0.36600
C 	C 	0.26960 0.08416 0.82507 0.11900
N 	N 	0.30029 0.07116 0.80039 -0.14200
C 	C 	0.33122 0.07672 0.83488 0.12600
N 	N 	0.33089 0.09364 0.89588 -0.14600
C 	C 	0.29980 0.10394 0.92322 0.13100
N 	N 	0.26924 0.09990 0.88713 -0.14200
C 	C 	0.28742 0.11769 0.52274 0.11900
N 	N 	0.28420 0.13299 0.46197 -0.14000
C 	C 	0.31112 0.13148 0.41770 0.12700
N 	N 	0.34185 0.11536 0.43517 -0.14300
C 	C 	0.34574 0.10097 0.49659 0.12600
N 	N 	0.31839 0.10184 0.54017 -0.14500
C 	C 	0.29851 0.11312 0.99542 -0.06500
C 	C 	0.30578 0.08753 0.04435 0.11000
C 	C 	0.30692 0.09771 0.11256 -0.09000
C 	C 	0.29899 0.13237 0.13304 -0.00000
C 	C 	0.29074 0.15779 0.08431 0.06400
C 	C 	0.29079 0.14788 0.01574 -0.03700
N 	N 	0.31078 0.05305 0.02634 -0.19800
H 	H 	0.31295 0.07829 0.15013 0.05600
C 	C 	0.29803 0.14113 0.20590 -0.00800
N 	N 	0.28251 0.19152 0.10289 -0.19300
H 	H 	0.28492 0.16732 0.97814 0.04000
C 	C 	0.32839 0.15520 0.23803 -0.08500
C 	C 	0.33133 0.15639 0.30852 0.10100
C 	C 	0.30451 0.14091 0.34693 -0.04900
C 	C 	0.27276 0.13004 0.31501 -0.05400
C 	C 	0.26905 0.13061 0.24478 0.07300
H 	H 	0.34999 0.16471 0.20813 0.05400
N 	N 	0.35931 0.17321 0.33896 -0.19900
H 	H 	0.25144 0.11967 0.34456 0.05500
N 	N 	0.23785 0.12062 0.21493 -0.19500
H 	H 	0.37988 0.18307 0.31036 0.08500
H 	H 	0.35986 0.17849 0.39074 0.09300
H 	H 	0.21696 0.11169 0.24381 0.08600
H 	H 	0.23360 0.12278 0.16321 0.09000
H 	H 	0.27649 0.21007 0.06652 0.08500
H 	H 	0.28186 0.19966 0.15337 0.08800
H 	H 	0.30662 0.04384 0.97695 0.09000
H 	H 	0.31751 0.03467 0.06261 0.08500
C 	C 	0.18358 0.09417 0.57473 -0.07200
C 	C 	0.19402 0.12964 0.57547 -0.01500
C 	C 	0.22981 0.13849 0.56935 0.01500
C 	C 	0.25525 0.11155 0.56202 -0.01700
C 	C 	0.24549 0.07677 0.57549 -0.05000
C 	C 	0.20967 0.06786 0.58100 0.04700
S 	S 	0.24228 0.18316 0.56759 -0.03400
S 	S 	0.19766 0.02335 0.58898 -0.03400
H 	H 	0.19220 0.00828 0.52633 0.04100
H 	H 	0.25077 0.19523 0.63130 0.03600
H 	H 	0.17413 0.15021 0.57518 0.04300
H 	H 	0.26529 0.05611 0.57471 0.05100
C 	C 	0.16494 0.07090 0.74880 -0.07000
C 	C 	0.18171 0.10368 0.74373 -0.01000
C 	C 	0.21730 0.10775 0.76276 0.01500
C 	C 	0.23632 0.07878 0.78718 -0.01600
C 	C 	0.22095 0.04516 0.78387 -0.05100
C 	C 	0.18528 0.04105 0.76528 0.04800
S 	S 	0.23750 0.14939 0.75758 -0.04100
S 	S 	0.16599 0.99882 0.76685 -0.03500
H 	H 	0.15459 0.99265 0.83047 0.04500
H 	H 	0.23377 0.16760 0.81739 0.03800
H 	H 	0.16652 0.12645 0.72860 0.04500
H 	H 	0.23608 0.02254 0.79999 0.05000
C 	C 	0.84155 0.34042 0.71728 -0.05000
C 	C 	0.82525 0.36738 0.67991 0.10100
C 	C 	0.82736 0.36639 0.60949 -0.08600
C 	C 	0.84322 0.33775 0.57583 -0.00600
C 	C 	0.85554 0.30873 0.61286 0.07100
C 	C 	0.85509 0.31059 0.68340 -0.05300
N 	N 	0.80686 0.39367 0.71117 -0.19900
H 	H 	0.81675 0.38801 0.58083 0.05400
C 	C 	0.85004 0.34000 0.50296 -0.00500
N 	N 	0.86793 0.27919 0.58106 -0.19400
H 	H 	0.86652 0.28934 0.71195 0.05100
C 	C 	0.88404 0.34923 0.48236 -0.08600
C 	C 	0.89199 0.35053 0.41384 0.10200
C 	C 	0.86470 0.34468 0.36510 -0.05000
C 	C 	0.83064 0.33555 0.38565 -0.05200
C 	C 	0.82310 0.33270 0.45421 0.06900
H 	H 	0.90467 0.35445 0.51986 0.05500
N 	N 	0.92597 0.35630 0.39527 -0.19900
H 	H 	0.80994 0.33060 0.34817 0.04800
N 	N 	0.79016 0.32262 0.47272 -0.19400
H 	H 	0.94561 0.36199 0.43158 0.08500
H 	H 	0.93362 0.35359 0.34524 0.09400
H 	H 	0.77037 0.31766 0.43637 0.08400
H 	H 	0.78397 0.31911 0.52304 0.08800
H 	H 	0.87803 0.25834 0.60879 0.08400
H 	H 	0.86662 0.27612 0.52878 0.09000
H 	H 	0.80119 0.39279 0.76229 0.09200
H 	H 	0.79629 0.41437 0.68360 0.08400
C 	C 	0.97981 0.13795 0.74849 -0.11500
C 	C 	0.94508 0.13321 0.75837 -0.08300
H 	H 	0.98774 0.15805 0.71388 0.06900
H 	H 	0.92634 0.14877 0.72974 0.05800
C 	C 	0.85869 0.28843 0.93659 -0.01600
C 	C 	0.89119 0.27114 0.94392 -0.05200
C 	C 	0.89218 0.23509 0.95708 0.04900
C 	C 	0.86026 0.21650 0.96639 -0.07500
C 	C 	0.82821 0.23506 0.96809 -0.01500
C 	C 	0.82734 0.27100 0.95382 0.01300
S 	S 	0.93316 0.21301 0.95510 -0.04500
S 	S 	0.78688 0.29380 0.95683 -0.04200
H 	H 	0.78252 0.30777 0.02034 0.03900
H 	H 	0.93955 0.20149 0.89061 0.04300
H 	H 	0.91554 0.28493 0.93333 0.05000
H 	H 	0.80373 0.22117 0.97705 0.03900
C 	C 	0.01515 0.11565 0.33349 -0.15100
C 	C 	0.01435 0.11244 0.40040 -0.15000
H 	H 	0.03917 0.10936 0.30635 0.04500
H 	H 	0.99152 0.12154 0.42843 0.02900
C 	C 	0.89521 0.21622 0.13707 -0.06800
C 	C 	0.92296 0.23963 0.12520 -0.01200
C 	C 	0.91709 0.27606 0.12870 0.01500
C 	C 	0.88316 0.28895 0.14479 -0.01400
C 	C 	0.85438 0.26557 0.14117 -0.04900
C 	C 	0.86030 0.22915 0.13924 0.05000
S 	S 	0.95274 0.30501 0.11727 -0.03700
S 	S 	0.82428 0.20012 0.14701 -0.03500
H 	H 	0.81292 0.18803 0.08492 0.04400
H 	H 	0.96812 0.31346 0.17844 0.03600
H 	H 	0.94963 0.22966 0.11925 0.04600
H 	H 	0.82777 0.27554 0.14803 0.05000
C 	C 	0.54625 0.00069 0.50099 -0.05200
C 	C 	0.54040 0.03614 0.48370 0.10100
C 	C 	0.50736 0.05167 0.49596 -0.08600
C 	C 	0.48049 0.03269 0.52687 -0.00600
C 	C 	0.48754 0.99825 0.54961 0.07100
C 	C 	0.52057 0.98273 0.53687 -0.05100
N 	N 	0.56631 0.05531 0.45506 -0.19900
H 	H 	0.50221 0.07829 0.47983 0.05500
C 	C 	0.44412 0.04753 0.52778 -0.00600
N 	N 	0.46254 0.97972 0.58218 -0.19400
H 	H 	0.52562 0.95592 0.55202 0.04900
C 	C 	0.41806 0.03241 0.48498 -0.08700
C 	C 	0.38460 0.04805 0.47841 0.10000
C 	C 	0.37783 0.08056 0.51222 -0.05400
C 	C 	0.40340 0.09516 0.55660 -0.05500
C 	C 	0.43626 0.07851 0.56596 0.06800
H 	H 	0.42393 0.00845 0.45644 0.05500
N 	N 	0.35905 0.03165 0.44002 -0.19900
H 	H 	0.39781 0.11964 0.58369 0.04700
N 	N 	0.45990 0.09216 0.61193 -0.19400
H 	H 	0.36463 0.00824 0.41346 0.08500
H 	H 	0.33315 0.04117 0.43814 0.09300
H 	H 	0.45393 0.11510 0.63964 0.08200
H 	H 	0.48399 0.07975 0.62183 0.08500
H 	H 	0.46737 0.95373 0.59581 0.08600
H 	H 	0.43851 0.99111 0.59581 0.08700
H 	H 	0.59183 0.04525 0.44934 0.09100
H 	H 	0.56144 0.08111 0.44031 0.08400
C 	C 	0.52154 0.96860 0.74457 -0.05100
C 	C 	0.51901 0.00487 0.73064 0.10000
C 	C 	0.48590 0.02144 0.73296 -0.08500
C 	C 	0.45536 0.00189 0.74543 -0.00700
C 	C 	0.45726 0.96469 0.74632 0.06900
C 	C 	0.49055 0.94831 0.74651 -0.05500
N 	N 	0.54827 0.02396 0.71649 -0.20000
H 	H 	0.48419 0.04983 0.72932 0.05200
C 	C 	0.42344 0.02067 0.76880 -0.00500
N 	N 	0.42739 0.94478 0.74856 -0.19500
H 	H 	0.49242 0.92009 0.75312 0.04700
C 	C 	0.40048 0.03552 0.72136 -0.08800
C 	C 	0.37179 0.05634 0.74203 0.10200
C 	C 	0.36418 0.05975 0.81140 -0.05100
C 	C 	0.38700 0.04447 0.85880 -0.05400
C 	C 	0.41701 0.02567 0.83833 0.07100
H 	H 	0.40577 0.03210 0.66826 0.05400
N 	N 	0.35243 0.07379 0.69542 -0.20000
H 	H 	0.38121 0.04689 0.91192 0.05000
N 	N 	0.43956 0.01264 0.88562 -0.19500
H 	H 	0.35351 0.06620 0.64472 0.09400
H 	H 	0.33805 0.09635 0.70849 0.09700
H 	H 	0.43419 0.01601 0.93675 0.08300
H 	H 	0.46287 0.99967 0.87250 0.09100
H 	H 	0.42903 0.91737 0.75155 0.08200
H 	H 	0.40232 0.95620 0.74499 0.08700
H 	H 	0.57276 0.01185 0.70994 0.09500
H 	H 	0.54637 0.05101 0.70847 0.08300
C 	C 	0.59057 0.94230 0.94724 -0.04600
C 	C 	0.58550 0.97336 0.98700 0.09300
C 	C 	0.58650 0.97145 0.05736 -0.07700
C 	C 	0.59493 0.93977 0.08857 -0.00900
C 	C 	0.60123 0.90896 0.04883 0.07800
C 	C 	0.59856 0.91049 0.97847 -0.06100
N 	N 	0.58101 0.00521 0.95811 -0.19800
H 	H 	0.58201 0.99503 0.08799 0.05400
C 	C 	0.59831 0.93957 0.16287 -0.00400
N 	N 	0.61013 0.87801 0.07773 -0.19500
H 	H 	0.60273 0.88682 0.94791 0.05000
C 	C 	0.56969 0.92792 0.20044 -0.08700
C 	C 	0.57135 0.92899 0.27105 0.10100
C 	C 	0.60109 0.94460 0.30441 -0.04900
C 	C 	0.63012 0.95531 0.26678 -0.05300
C 	C 	0.62930 0.95234 0.19632 0.07100
H 	H 	0.54633 0.91736 0.17465 0.05500
N 	N 	0.54505 0.91388 0.30629 -0.19900
H 	H 	0.65321 0.96660 0.29236 0.05200
N 	N 	0.65829 0.96171 0.16120 -0.19400
H 	H 	0.52240 0.90400 0.28147 0.08500
H 	H 	0.54773 0.90988 0.35784 0.09300
H 	H 	0.68074 0.97188 0.18628 0.08700
H 	H 	0.65924 0.95819 0.10906 0.09100
H 	H 	0.61452 0.85540 0.04793 0.08600
H 	H 	0.61313 0.87609 0.12974 0.08900
H 	H 	0.58449 0.00840 0.90670 0.09400
H 	H 	0.57572 0.02767 0.98776 0.08300
C 	C 	0.81644 0.06507 0.35873 -0.09200
C 	C 	0.82449 0.07517 0.29664 -0.10000
H 	H 	0.79034 0.07138 0.37767 0.06400
H 	H 	0.80338 0.08516 0.26472 0.07000
C 	C 	0.95584 0.01602 0.53677 -0.13300
C 	C 	0.98295 0.99347 0.53188 -0.12500
H 	H 	0.96150 0.04372 0.54733 0.04700
H 	H 	0.97715 0.96539 0.52851 0.00500
C 	C 	0.74075 0.95343 0.53649 -0.06900
C 	C 	0.72186 0.92164 0.53029 -0.01000
C 	C 	0.68504 0.92191 0.52084 0.01400
C 	C 	0.66700 0.95427 0.51677 -0.01600
C 	C 	0.68516 0.98566 0.53311 -0.05200
C 	C 	0.72196 0.98543 0.54276 0.04600
S 	S 	0.66198 0.88169 0.51170 -0.03500
S 	S 	0.74438 0.02558 0.55841 -0.04700
H 	H 	0.75426 0.03936 0.49854 0.04000
H 	H 	0.64856 0.87253 0.57231 0.03600
H 	H 	0.73601 0.89680 0.52880 0.04600
H 	H 	0.67111 0.01055 0.53308 0.04800
C 	C 	0.92303 0.99108 0.71726 -0.12700
C 	C 	0.95822 0.98591 0.72227 -0.12500
H 	H 	0.91292 0.01734 0.70807 -0.00600
H 	H 	0.96875 0.95937 0.71708 -0.01400
C 	C 	0.82862 0.99849 0.90936 -0.15300
C 	C 	0.80979 0.02773 0.92286 -0.11100
H 	H 	0.85637 0.99747 0.92423 -0.01400
H 	H 	0.78117 0.02727 0.91662 0.07200
C 	C 	0.71541 0.91502 0.69720 -0.07300
C 	C 	0.70220 0.94953 0.69647 -0.01200
C 	C 	0.66664 0.95609 0.71038 0.01600
C 	C 	0.64419 0.92797 0.72644 -0.01700
C 	C 	0.65622 0.89323 0.71802 -0.05200
C 	C 	0.69170 0.88663 0.70294 0.04500
S 	S 	0.65113 0.99980 0.71187 -0.03900
S 	S 	0.70620 0.84284 0.69186 -0.03900
H 	H 	0.70366 0.83321 0.62511 0.03600
H 	H 	0.63637 0.00720 0.65049 0.03800
H 	H 	0.72009 0.97147 0.68984 0.05300
H 	H 	0.63854 0.87141 0.72716 0.04800
C 	C 	0.90898 0.41454 0.18169 -0.05000
C 	C 	0.89601 0.44803 0.20183 0.10100
C 	C 	0.91881 0.47723 0.20286 -0.08800
C 	C 	0.95315 0.47430 0.17740 -0.00200
C 	C 	0.96458 0.44155 0.14937 0.06700
C 	C 	0.94232 0.41197 0.15198 -0.05300
N 	N 	0.86159 0.45235 0.21907 -0.19900
H 	H 	0.90972 0.50240 0.22300 0.05500
C 	C 	0.97754 0.50503 0.18461 -0.01600
N 	N 	0.99697 0.43817 0.12107 -0.20200
H 	H 	0.95179 0.38653 0.13412 0.05100
C 	C 	0.00761 0.50257 0.22659 -0.07600
C 	C 	0.02931 0.53206 0.23959 0.09600
C 	C 	0.01833 0.56549 0.21730 -0.04100
C 	C 	0.98942 0.56770 0.17246 -0.06600
C 	C 	0.96917 0.53769 0.15515 0.07700
H 	H 	0.01441 0.47751 0.24836 0.05400
N 	N 	0.06105 0.52801 0.27162 -0.19800
H 	H 	0.98171 0.59307 0.15312 0.05400
N 	N 	0.94148 0.54047 0.11115 -0.19600
H 	H 	0.06821 0.50365 0.29103 0.08500
H 	H 	0.07978 0.54830 0.27364 0.09200
H 	H 	0.93443 0.56494 0.09207 0.08700
H 	H 	0.92796 0.51820 0.09275 0.09100
H 	H 	0.00543 0.41370 0.10214 0.08800
H 	H 	0.01363 0.45981 0.11566 0.08900
H 	H 	0.84320 0.43197 0.21170 0.09100
H 	H 	0.85248 0.47685 0.23663 0.08400
C 	C 	0.96825 0.58212 0.93444 -0.04700
C 	C 	0.93353 0.57718 0.90817 0.09600
C 	C 	0.91804 0.54352 0.90864 -0.08600
C 	C 	0.93620 0.51512 0.93686 -0.01100
C 	C 	0.96997 0.52075 0.96728 0.07500
C 	C 	0.98556 0.55431 0.96600 -0.06500
N 	N 	0.91510 0.60450 0.88191 -0.19900
H 	H 	0.89208 0.53925 0.88579 0.05200
C 	C 	0.92194 0.47893 0.92596 -0.00300
N 	N 	0.98749 0.49411 0.99772 -0.20400
H 	H 	0.01186 0.55843 0.98747 0.05400
C 	C 	0.93840 0.45635 0.87916 -0.08800
C 	C 	0.92632 0.42170 0.86821 0.10100
C 	C 	0.89581 0.41015 0.90154 -0.05200
C 	C 	0.88035 0.43200 0.95072 -0.05100
C 	C 	0.89272 0.46659 0.96262 0.06400
H 	H 	0.96115 0.46561 0.85211 0.05400
N 	N 	0.94450 0.39941 0.82678 -0.19900
H 	H 	0.85740 0.42278 0.97722 0.04800
N 	N 	0.87596 0.48790 0.00796 -0.19200
H 	H 	0.96620 0.40848 0.80026 0.08300
H 	H 	0.93831 0.37259 0.82290 0.09200
H 	H 	0.85570 0.47795 0.03719 0.08400
H 	H 	0.88197 0.51466 0.01321 0.08500
H 	H 	0.01296 0.49816 0.01776 0.09100
H 	H 	0.97567 0.46954 0.00358 0.09400
H 	H 	0.92513 0.63017 0.88407 0.09000
H 	H 	0.88988 0.60043 0.86074 0.08300
C 	C 	0.04820 0.63387 0.42188 -0.05000
C 	C 	0.01745 0.62915 0.46044 0.10500
C 	C 	0.02009 0.63125 0.53078 -0.07800
C 	C 	0.05225 0.64006 0.56307 -0.00700
C 	C 	0.08285 0.64558 0.52455 0.07000
C 	C 	0.08054 0.64208 0.45418 -0.05200
N 	N 	0.98521 0.62370 0.43034 -0.20200
H 	H 	0.99671 0.62717 0.56056 0.04900
C 	C 	0.05311 0.64449 0.63715 -0.00400
N 	N 	0.11430 0.65461 0.55460 -0.19400
H 	H 	0.10395 0.64600 0.42443 0.04900
C 	C 	0.06394 0.61615 0.67628 -0.08700
C 	C 	0.05896 0.61702 0.74604 0.10200
C 	C 	0.04062 0.64569 0.77610 -0.05000
C 	C 	0.03254 0.67528 0.73789 -0.05300
C 	C 	0.03917 0.67517 0.66872 0.07100
H 	H 	0.07593 0.59323 0.65229 0.05500
N 	N 	0.07249 0.59080 0.78401 -0.19900
H 	H 	0.01976 0.69789 0.76142 0.05300
N 	N 	0.03184 0.70439 0.63284 -0.19400
H 	H 	0.08455 0.56890 0.76118 0.08500
H 	H 	0.07295 0.59285 0.83646 0.09200
H 	H 	0.02044 0.72653 0.65610 0.08600
H 	H 	0.03843 0.70588 0.58224 0.09100
H 	H 	0.13675 0.65852 0.52568 0.08400
H 	H 	0.11681 0.65809 0.60667 0.08800
H 	H 	0.98155 0.62554 0.37845 0.09300
H 	H 	0.96295 0.61899 0.45930 0.08500
C 	C 	0.95032 0.98635 0.01282 -0.12700
C 	C 	0.92394 0.00979 0.01770 -0.11400
H 	H 	0.96747 0.98349 0.05658 0.07000
H 	H 	0.91470 0.01645 0.06786 0.06800
C 	C 	0.93307 0.84604 0.76797 -0.08700
C 	C 	0.89920 0.84031 0.74923 -0.10400
H 	H 	0.95341 0.82944 0.74582 0.05800
H 	H 	0.89343 0.81841 0.71455 0.06800
C 	C 	0.05722 0.96045 0.96058 -0.10800
C 	C 	0.04007 0.98923 0.93979 -0.15700
H 	H 	0.08597 0.95992 0.96136 0.06800
H 	H 	0.01176 0.99123 0.94613 -0.00600
C 	C 	0.00531 0.70383 0.98550 -0.01300
C 	C 	0.97229 0.72054 0.98699 -0.06600
C 	C 	0.97009 0.75687 0.00027 0.05400
C 	C 	0.00123 0.77649 0.01505 -0.06900
C 	C 	0.03335 0.75857 0.02395 -0.00800
C 	C 	0.03557 0.72238 0.00893 0.01700
S 	S 	0.92864 0.77775 0.99300 -0.05100
S 	S 	0.07663 0.70089 0.01654 -0.03300
H 	H 	0.07635 0.67980 0.07130 0.03900
H 	H 	0.92343 0.78794 0.92802 0.04200
H 	H 	0.94867 0.70594 0.97180 0.05100
H 	H 	0.05711 0.77322 0.03805 0.04800
C 	C 	0.96511 0.97688 0.20022 -0.13100
C 	C 	0.97507 0.01077 0.19768 -0.15600
H 	H 	0.93735 0.96991 0.19334 0.02300
H 	H 	0.00301 0.01739 0.19546 0.02500
C 	C 	0.91329 0.88877 0.34040 -0.15200
C 	C 	0.91165 0.89667 0.40637 -0.15900
H 	H 	0.89125 0.89512 0.30705 0.05000
H 	H 	0.93220 0.88764 0.44067 0.03200
C 	C 	0.09934 0.94659 0.40067 -0.12300
C 	C 	0.09252 0.93838 0.33575 -0.12500
H 	H 	0.09521 0.92696 0.43864 0.06500
H 	H 	0.09989 0.95647 0.29687 0.05400
C 	C 	0.04160 0.69206 0.20738 -0.02000
C 	C 	0.00779 0.70467 0.19076 -0.04200
C 	C 	0.00209 0.74092 0.18495 0.04900
C 	C 	0.03082 0.76449 0.19226 -0.07300
C 	C 	0.06531 0.75110 0.19633 -0.01400
C 	C 	0.07083 0.71504 0.20505 0.01300
S 	S 	0.95857 0.75673 0.17538 -0.03200
S 	S 	0.11421 0.69922 0.21677 -0.03800
H 	H 	0.12835 0.69024 0.15575 0.03500
H 	H 	0.94472 0.76374 0.23749 0.04500
H 	H 	0.98540 0.68675 0.18927 0.04500
H 	H 	0.08766 0.76907 0.19865 0.04200
