data_crystal

_cell_length_a 48.69126
_cell_length_b 48.96483
_cell_length_c 25.60281
_cell_angle_alpha 94.61640
_cell_angle_beta  85.51522
_cell_angle_gamma 90.12184

_symmetry_space_group_name_	'P 1'
_symmetry_space_group_name_H-M	'P 1'

loop_
_symmetry_equiv_pos_as_xyz
  x,y,z

loop_
_atom_site_label
_atom_site_type_symbol
_atom_site_fract_x
_atom_site_fract_y
_atom_site_fract_z
_atom_site_charge
Cd	Cd	0.91455 0.96933 0.85438 1.16100
O 	O 	0.93022 0.98985 0.71843 -0.38800
O 	O 	0.94795 0.97174 0.78892 -0.43800
C 	C 	0.94938 0.98943 0.75263 0.29100
O 	O 	0.88174 0.98494 0.80609 -0.55700
O 	O 	0.83486 0.95725 0.36050 -0.46600
C 	C 	0.82601 0.98230 0.37067 0.32200
O 	O 	0.81992 0.99004 0.42010 -0.37100
C 	C 	0.14110 0.03755 0.83191 0.33000
O 	O 	0.15247 0.02643 0.78747 -0.31300
O 	O 	0.13125 0.06192 0.83025 -0.55800
Cd	Cd	0.07726 0.05463 0.49747 1.24100
Cd	Cd	0.04944 0.05246 0.37234 1.16100
O 	O 	0.11521 0.08696 0.50789 -0.32500
O 	O 	0.10119 0.06171 0.57120 -0.35700
C 	C 	0.11988 0.07838 0.55294 0.29300
O 	O 	0.03797 0.03019 0.50874 -0.38500
C 	C 	0.02363 0.02182 0.46855 0.28900
O 	O 	0.05792 0.07987 0.44553 -0.55500
H 	H 	0.38866 0.02371 0.09849 0.08400
C 	C 	0.21407 0.04389 0.55439 -0.02700
C 	C 	0.24128 0.04134 0.53246 -0.04200
C 	C 	0.14809 0.07544 0.56408 -0.09500
H 	H 	0.20163 0.02569 0.55826 0.04500
H 	H 	0.24964 0.02119 0.51976 0.04400
H 	H 	0.26156 0.01222 0.70886 0.04100
C 	C 	0.48910 0.00287 0.32868 0.07000
C 	C 	0.44202 0.00098 0.37694 -0.00600
N 	N 	0.48061 0.02321 0.30037 -0.19400
C 	C 	0.43638 0.02461 0.41075 -0.08600
C 	C 	0.41060 0.03769 0.41313 0.10000
C 	C 	0.42072 0.98857 0.34887 0.07000
H 	H 	0.45259 0.03369 0.43308 0.05400
N 	N 	0.40633 0.06165 0.44349 -0.20000
N 	N 	0.42524 0.96493 0.31765 -0.19400
H 	H 	0.42191 0.07003 0.46557 0.08500
H 	H 	0.44419 0.95477 0.31467 0.08800
H 	H 	0.49428 0.03173 0.27268 0.08300
C 	C 	0.49717 0.03516 0.85149 -0.00500
C 	C 	0.47894 0.02332 0.88909 0.07000
C 	C 	0.52568 0.02486 0.83984 -0.00600
N 	N 	0.48731 0.00258 0.91656 -0.19400
C 	C 	0.54669 0.03705 0.86796 -0.08700
H 	H 	0.54245 0.05572 0.89304 0.05300
N 	N 	0.51207 0.99024 0.77435 -0.19400
H 	H 	0.49302 0.99979 0.77296 0.08900
C 	C 	0.97131 0.00628 0.47806 0.00500
C 	C 	0.99521 0.01343 0.47704 -0.13000
H 	H 	0.70342 0.99455 0.52589 0.04000
C 	C 	0.97509 0.00382 0.74363 -0.12200
C 	C 	0.99739 0.01495 0.74170 0.00500
C 	C 	0.02366 0.02755 0.74499 0.00400
C 	C 	0.99954 0.01804 0.97854 0.00200
C 	C 	0.96775 0.00658 0.24186 0.00500
C 	C 	0.95620 0.02863 0.24437 -0.12100
Cd	Cd	0.02798 0.87288 0.24470 1.24100
Cd	Cd	0.02169 0.91037 0.37037 1.16100
O 	O 	0.04682 0.82668 0.24489 -0.32700
O 	O 	0.02983 0.84033 0.17443 -0.35000
C 	C 	0.04123 0.82067 0.19673 0.29100
O 	O 	0.00522 0.91176 0.23130 -0.38500
O 	O 	0.02127 0.93691 0.30237 -0.43800
C 	C 	0.00490 0.93442 0.26360 0.29000
C 	C 	0.98333 0.86165 0.31842 0.32900
O 	O 	0.05879 0.89007 0.31944 -0.46300
O 	O 	0.97914 0.85082 0.27149 -0.31200
O 	O 	0.00725 0.87265 0.32315 -0.55800
C 	C 	0.07456 0.90201 0.28486 0.31800
O 	O 	0.06937 0.89620 0.23596 -0.35500
Cd	Cd	0.04261 0.91067 0.99269 1.23800
Cd	Cd	0.05718 0.94112 0.87185 1.16000
O 	O 	0.07161 0.87125 0.00480 -0.32100
O 	O 	0.03906 0.88523 0.06429 -0.35500
C 	C 	0.05678 0.86601 0.04704 0.29200
O 	O 	0.01842 0.95037 0.00413 -0.37700
O 	O 	0.01740 0.95514 0.91606 -0.45000
C 	C 	0.01564 0.96599 0.96494 0.28200
C 	C 	0.08965 0.94427 0.97899 0.31800
O 	O 	0.04246 0.89776 0.89066 -0.46800
O 	O 	0.08440 0.94066 0.02887 -0.29500
O 	O 	0.07512 0.92991 0.94697 -0.55500
C 	C 	0.01720 0.88958 0.89931 0.32200
O 	O 	0.00812 0.88932 0.94848 -0.37500
C 	C 	0.02431 0.67015 0.88355 0.12900
N 	N 	0.01196 0.64616 0.89439 -0.14400
C 	C 	0.00898 0.62625 0.85513 0.12700
N 	N 	0.01863 0.63030 0.80514 -0.14400
C 	C 	0.03110 0.65424 0.79422 0.12700
N 	N 	0.03377 0.67423 0.83346 -0.14300
C 	C 	0.03893 0.63727 0.31928 0.12800
N 	N 	0.04089 0.64913 0.36869 -0.14300
C 	C 	0.03612 0.63412 0.41079 0.12800
N 	N 	0.02913 0.60734 0.40346 -0.14400
C 	C 	0.02711 0.59543 0.35418 0.12700
N 	N 	0.03266 0.61027 0.31199 -0.14300
Cd	Cd	0.89000 0.96642 0.72623 1.23900
O 	O 	0.84418 0.94667 0.72275 -0.32900
O 	O 	0.86353 0.96619 0.65513 -0.35400
C 	C 	0.84200 0.95386 0.67575 0.29500
C 	C 	0.87107 0.00886 0.80315 0.32900
O 	O 	0.89969 0.93376 0.79823 -0.46400
O 	O 	0.86479 0.01418 0.75640 -0.31300
C 	C 	0.91534 0.91906 0.76331 0.32000
O 	O 	0.91463 0.92558 0.71497 -0.36200
Cd	Cd	0.83499 0.95387 0.46274 1.24100
Cd	Cd	0.88020 0.94244 0.34703 1.16000
O 	O 	0.79302 0.92599 0.46650 -0.32500
O 	O 	0.80190 0.95556 0.53153 -0.35600
C 	C 	0.78432 0.93847 0.51130 0.29200
O 	O 	0.87342 0.97696 0.48311 -0.38100
O 	O 	0.88974 0.98046 0.39758 -0.45000
C 	C 	0.89412 0.98074 0.44774 0.28900
C 	C 	0.86936 0.90675 0.44877 0.32500
O 	O 	0.85958 0.91064 0.49788 -0.29900
O 	O 	0.85920 0.92232 0.41674 -0.55500
C 	C 	0.64383 0.96250 0.80542 0.12800
N 	N 	0.62104 0.97754 0.79977 -0.14300
C 	C 	0.60215 0.98292 0.84114 0.12800
N 	N 	0.60606 0.97325 0.88819 -0.14400
C 	C 	0.62885 0.95829 0.89410 0.12500
N 	N 	0.64758 0.95256 0.85245 -0.14400
C 	C 	0.59838 0.95669 0.36557 0.12800
N 	N 	0.60906 0.95248 0.31495 -0.14200
C 	C 	0.59237 0.95304 0.27497 0.12800
N 	N 	0.56487 0.95703 0.28581 -0.14400
C 	C 	0.55420 0.96201 0.33630 0.12600
N 	N 	0.57108 0.96211 0.37621 -0.14300
Cd	Cd	0.92208 0.11386 0.22644 1.24000
Cd	Cd	0.90558 0.08679 0.35030 1.16100
O 	O 	0.90408 0.15986 0.21971 -0.32700
O 	O 	0.93398 0.14116 0.15912 -0.35300
C 	C 	0.91965 0.16285 0.17722 0.29500
O 	O 	0.94625 0.07409 0.22157 -0.38900
O 	O 	0.91810 0.05458 0.28470 -0.43800
C 	C 	0.94078 0.05407 0.25287 0.29100
C 	C 	0.95234 0.13135 0.31388 0.32900
O 	O 	0.87899 0.10265 0.28763 -0.46300
O 	O 	0.96470 0.13845 0.27001 -0.31300
O 	O 	0.92824 0.12064 0.30989 -0.55800
C 	C 	0.86974 0.08753 0.24884 0.31800
O 	O 	0.88332 0.08936 0.20317 -0.35700
Cd	Cd	0.94825 0.15392 0.97293 1.24000
Cd	Cd	0.95224 0.11195 0.85222 1.16000
O 	O 	0.91838 0.19431 0.97594 -0.33200
O 	O 	0.94013 0.18518 0.04408 -0.35100
C 	C 	0.92463 0.20226 0.02302 0.30000
O 	O 	0.96988 0.11565 0.99228 -0.38400
O 	O 	0.98424 0.10228 0.90674 -0.45000
C 	C 	0.97837 0.09626 0.95555 0.28900
C 	C 	0.90400 0.11865 0.94847 0.32600
O 	O 	0.96402 0.15720 0.87280 -0.46600
O 	O 	0.90161 0.12706 0.99843 -0.30200
O 	O 	0.92324 0.13003 0.92034 -0.55500
C 	C 	0.98754 0.16640 0.88738 0.32100
O 	O 	0.98903 0.17141 0.93785 -0.37200
C 	C 	0.93240 0.39038 0.89346 0.12600
N 	N 	0.93991 0.41691 0.90331 -0.14300
C 	C 	0.94228 0.43379 0.86362 0.12700
N 	N 	0.93665 0.42422 0.81438 -0.14400
C 	C 	0.92954 0.39762 0.80424 0.12600
N 	N 	0.92775 0.38062 0.84376 -0.14300
C 	C 	0.94750 0.35782 0.33072 0.12800
N 	N 	0.95837 0.38271 0.32150 -0.14300
C 	C 	0.96121 0.40181 0.36226 0.12700
N 	N 	0.95218 0.39630 0.41177 -0.14500
C 	C 	0.93998 0.37201 0.42070 0.12800
N 	N 	0.93807 0.35255 0.38026 -0.14300
Cd	Cd	0.13346 0.07102 0.74819 1.24100
Cd	Cd	0.09330 0.08369 0.87005 1.16000
O 	O 	0.18085 0.08780 0.74680 -0.32800
O 	O 	0.16710 0.06086 0.68154 -0.35500
C 	C 	0.18736 0.07419 0.70209 0.29200
O 	O 	0.09379 0.04803 0.73638 -0.38600
O 	O 	0.06783 0.07427 0.80070 -0.43800
C 	C 	0.07034 0.05294 0.76569 0.29100
O 	O 	0.11661 0.11217 0.81358 -0.46400
C 	C 	0.10599 0.12314 0.77519 0.31700
O 	O 	0.11237 0.11106 0.72844 -0.35400
O 	O 	0.03588 0.01801 0.42088 -0.45000
C 	C 	0.04233 0.09745 0.47403 0.32600
O 	O 	0.09276 0.04250 0.39726 -0.46500
O 	O 	0.04494 0.09868 0.52465 -0.30500
C 	C 	0.10149 0.01908 0.41027 0.32300
O 	O 	0.10096 0.01631 0.46051 -0.37100
C 	C 	0.36915 0.06286 0.85113 0.12800
N 	N 	0.39677 0.05982 0.84080 -0.14300
C 	C 	0.41376 0.06350 0.88036 0.12700
N 	N 	0.40302 0.07040 0.93015 -0.14600
C 	C 	0.37534 0.07265 0.94101 0.13000
N 	N 	0.35836 0.06857 0.90140 -0.14400
C 	C 	0.32087 0.05867 0.40908 0.12700
N 	N 	0.34434 0.04487 0.41593 -0.14300
C 	C 	0.36446 0.04152 0.37601 0.12700
N 	N 	0.36050 0.05082 0.32865 -0.14400
C 	C 	0.33681 0.06401 0.32131 0.12800
N 	N 	0.31725 0.06850 0.36192 -0.14400
C 	C 	0.36389 0.07427 0.99637 -0.06800
C 	C 	0.34533 0.09537 0.01742 0.11600
C 	C 	0.33579 0.09642 0.07087 -0.09400
C 	C 	0.34604 0.07816 0.10422 -0.00000
C 	C 	0.36472 0.05722 0.08320 0.06600
C 	C 	0.37289 0.05513 0.02930 -0.03900
N 	N 	0.33737 0.11516 0.98730 -0.20900
H 	H 	0.32132 0.11229 0.08705 0.05500
C 	C 	0.33751 0.08134 0.16129 -0.00800
N 	N 	0.37509 0.03923 0.11456 -0.19300
H 	H 	0.38688 0.03885 0.01305 0.04800
C 	C 	0.31704 0.06405 0.18157 -0.08500
C 	C 	0.31476 0.05956 0.23527 0.09900
C 	C 	0.33263 0.07361 0.26937 -0.05000
C 	C 	0.35029 0.09379 0.25012 -0.05300
C 	C 	0.35302 0.09774 0.19624 0.07100
H 	H 	0.30433 0.05242 0.15489 0.05400
N 	N 	0.29609 0.04114 0.25333 -0.20000
H 	H 	0.36315 0.10533 0.27666 0.04800
N 	N 	0.37103 0.11674 0.17820 -0.19400
H 	H 	0.28341 0.03053 0.22760 0.08500
H 	H 	0.29369 0.03737 0.29293 0.09500
H 	H 	0.38302 0.12817 0.20408 0.08400
H 	H 	0.37283 0.12084 0.13871 0.08800
H 	H 	0.37015 0.04058 0.15508 0.09000
H 	H 	0.34609 0.11667 0.94912 0.09300
H 	H 	0.32300 0.13007 0.00282 0.08900
C 	C 	0.20209 0.06994 0.56552 0.00000
C 	C 	0.25657 0.06484 0.52194 0.01500
C 	C 	0.24600 0.09070 0.54073 -0.04200
C 	C 	0.21878 0.09324 0.56264 -0.02900
C 	C 	0.27963 0.06281 0.48285 0.00300
C 	C 	0.29890 0.06094 0.45011 -0.04000
C 	C 	0.17269 0.07290 0.56473 0.05400
H 	H 	0.25802 0.10896 0.53450 0.04300
H 	H 	0.20998 0.11345 0.57286 0.04300
C 	C 	0.26829 0.05289 0.68362 -0.00600
C 	C 	0.27595 0.02904 0.70580 -0.02900
C 	C 	0.30029 0.02860 0.73139 -0.04200
C 	C 	0.31726 0.05174 0.73347 0.01500
C 	C 	0.31218 0.07330 0.70260 -0.04300
C 	C 	0.28785 0.07364 0.67691 -0.02900
C 	C 	0.33579 0.05575 0.77462 0.00300
C 	C 	0.35125 0.05892 0.80918 -0.04100
C 	C 	0.23956 0.06006 0.68670 0.04600
C 	C 	0.21541 0.06577 0.68951 -0.09400
H 	H 	0.30466 0.01129 0.75331 0.04300
H 	H 	0.32582 0.09081 0.70211 0.04300
H 	H 	0.28276 0.09157 0.65734 0.04000
C 	C 	0.92857 0.36706 0.47419 -0.05100
C 	C 	0.91179 0.38708 0.50420 0.10100
C 	C 	0.90934 0.38718 0.55917 -0.08600
C 	C 	0.92205 0.36671 0.58413 -0.00500
C 	C 	0.93455 0.34405 0.55351 0.06900
C 	C 	0.93825 0.34471 0.49860 -0.05400
N 	N 	0.89793 0.40606 0.48040 -0.19900
H 	H 	0.89830 0.40369 0.58261 0.05400
C 	C 	0.92525 0.37110 0.64132 -0.00600
N 	N 	0.94363 0.32208 0.57662 -0.19400
H 	H 	0.94987 0.32855 0.47528 0.04900
C 	C 	0.90231 0.36769 0.67687 -0.08700
C 	C 	0.90325 0.37582 0.73064 0.10000
C 	C 	0.92811 0.38640 0.74931 -0.05000
C 	C 	0.95150 0.38818 0.71421 -0.05200
C 	C 	0.95020 0.38133 0.66021 0.07100
H 	H 	0.88329 0.35975 0.66231 0.05300
N 	N 	0.88008 0.37415 0.76358 -0.20000
H 	H 	0.97060 0.39594 0.72875 0.04700
N 	N 	0.97272 0.38525 0.62670 -0.19400
H 	H 	0.86198 0.36600 0.74943 0.08400
H 	H 	0.87956 0.38135 0.80311 0.09300
H 	H 	0.99112 0.39238 0.64123 0.08300
H 	H 	0.97217 0.38182 0.58606 0.09000
H 	H 	0.95372 0.30585 0.55395 0.08300
H 	H 	0.93994 0.32049 0.61700 0.08700
H 	H 	0.89716 0.40478 0.43962 0.09100
H 	H 	0.88660 0.42157 0.50282 0.08300
C 	C 	0.01206 0.16164 0.85364 -0.14500
C 	C 	0.03323 0.15604 0.82785 0.02200
C 	C 	0.05857 0.14719 0.80237 0.01800
C 	C 	0.08045 0.13738 0.78620 -0.13300
C 	C 	0.92923 0.33634 0.00721 0.02600
C 	C 	0.90381 0.32543 0.02460 -0.04600
C 	C 	0.90286 0.29995 0.04582 -0.02700
C 	C 	0.92729 0.28523 0.04873 -0.00700
C 	C 	0.95264 0.29845 0.04042 -0.02600
C 	C 	0.95364 0.32392 0.01911 -0.04600
C 	C 	0.92649 0.25576 0.04275 0.04800
C 	C 	0.92560 0.23110 0.03776 -0.09700
C 	C 	0.93025 0.35582 0.96777 -0.00700
C 	C 	0.93120 0.37211 0.93475 -0.03700
H 	H 	0.88478 0.33544 0.01749 0.04600
H 	H 	0.88310 0.29041 0.05449 0.04000
H 	H 	0.97167 0.28777 0.04499 0.04100
H 	H 	0.97342 0.33274 0.00769 0.04700
C 	C 	0.96769 0.12741 0.35794 -0.18000
C 	C 	0.98218 0.12314 0.39227 0.00800
C 	C 	0.00120 0.11649 0.42776 0.00100
C 	C 	0.01923 0.10892 0.45262 -0.16400
C 	C 	0.94600 0.29583 0.21445 0.01500
C 	C 	0.92078 0.28736 0.19595 -0.04100
C 	C 	0.91800 0.26075 0.17283 -0.02900
C 	C 	0.94051 0.24264 0.16767 -0.00100
C 	C 	0.96666 0.25262 0.17843 -0.03000
C 	C 	0.96937 0.27915 0.20223 -0.04200
C 	C 	0.93531 0.21368 0.16724 0.05100
C 	C 	0.92911 0.18984 0.16743 -0.08200
C 	C 	0.94653 0.31805 0.25482 0.00400
C 	C 	0.94704 0.33664 0.28863 -0.04000
H 	H 	0.90280 0.30052 0.20341 0.04400
H 	H 	0.89785 0.25353 0.16295 0.04400
H 	H 	0.98437 0.23904 0.17317 0.04200
H 	H 	0.98918 0.28586 0.21491 0.04300
C 	C 	0.52535 0.97144 0.34689 -0.05000
C 	C 	0.50685 0.95922 0.38364 0.10000
C 	C 	0.48012 0.97004 0.39467 -0.08700
C 	C 	0.47091 0.99130 0.36673 -0.00500
C 	C 	0.51626 0.99312 0.31985 -0.05300
N 	N 	0.51416 0.93652 0.40672 -0.19900
H 	H 	0.46606 0.96112 0.42352 0.05400
H 	H 	0.53041 0.00242 0.29166 0.04800
C 	C 	0.38976 0.02612 0.38263 -0.05000
C 	C 	0.39470 0.00117 0.35247 -0.05300
H 	H 	0.37854 0.99210 0.32995 0.04800
H 	H 	0.38766 0.07224 0.44547 0.09400
H 	H 	0.40953 0.95622 0.29630 0.08300
H 	H 	0.46040 0.03060 0.30501 0.08900
H 	H 	0.53239 0.92588 0.39453 0.09300
H 	H 	0.50081 0.92839 0.43542 0.08500
C 	C 	0.44278 0.05485 0.87130 -0.05100
C 	C 	0.46134 0.06747 0.83533 0.10000
C 	C 	0.48829 0.05716 0.82517 -0.08700
C 	C 	0.45184 0.03314 0.89819 -0.05200
N 	N 	0.45370 0.08984 0.81159 -0.19900
H 	H 	0.50249 0.06646 0.79706 0.05400
H 	H 	0.43764 0.02369 0.92609 0.04700
C 	C 	0.57279 0.02474 0.86549 0.10000
C 	C 	0.57761 0.99948 0.83528 -0.05100
C 	C 	0.55739 0.98857 0.80365 -0.05300
C 	C 	0.53145 0.00118 0.80528 0.07000
N 	N 	0.59316 0.03734 0.89177 -0.19900
H 	H 	0.56148 0.96966 0.77920 0.04900
H 	H 	0.58914 0.05545 0.91560 0.08300
H 	H 	0.61336 0.02991 0.88717 0.09100
H 	H 	0.51621 0.97226 0.75016 0.08400
H 	H 	0.47357 0.99379 0.94377 0.08200
H 	H 	0.50751 0.99518 0.91180 0.08900
H 	H 	0.43466 0.09941 0.82153 0.09200
H 	H 	0.46731 0.09852 0.78400 0.08400
C 	C 	0.63306 0.94837 0.94579 -0.04400
C 	C 	0.65194 0.96149 0.97893 0.08900
C 	C 	0.64963 0.95756 0.03287 -0.07400
C 	C 	0.62841 0.94147 0.05430 -0.01200
C 	C 	0.61148 0.92611 0.02036 0.08200
C 	C 	0.61424 0.92950 0.96623 -0.06500
N 	N 	0.67175 0.97846 0.95966 -0.19900
H 	H 	0.66326 0.96848 0.05875 0.05200
C 	C 	0.62099 0.94491 0.11178 -0.00200
N 	N 	0.59219 0.90860 0.03953 -0.19600
H 	H 	0.60047 0.91870 0.94044 0.04900
C 	C 	0.60576 0.96809 0.13248 -0.08700
C 	C 	0.59841 0.97232 0.18658 0.10200
C 	C 	0.60434 0.95176 0.21998 -0.05100
C 	C 	0.62036 0.92897 0.19968 -0.05200
C 	C 	0.62928 0.92562 0.14592 0.06700
H 	H 	0.60020 0.98326 0.10648 0.05600
N 	N 	0.58663 0.99651 0.20646 -0.19900
H 	H 	0.62553 0.91359 0.22554 0.04900
N 	N 	0.64541 0.90377 0.12738 -0.19400
H 	H 	0.58089 0.01091 0.18129 0.08400
H 	H 	0.58470 0.00201 0.24683 0.09200
H 	H 	0.65108 0.88943 0.15274 0.08300
H 	H 	0.65276 0.90095 0.08790 0.08800
H 	H 	0.57936 0.89782 0.01432 0.08600
H 	H 	0.59007 0.90509 0.07930 0.08900
H 	H 	0.67437 0.98156 0.91976 0.09300
H 	H 	0.68516 0.98850 0.98471 0.08100
C 	C 	0.83154 0.00221 0.33357 -0.14500
C 	C 	0.83748 0.02010 0.30538 0.02000
C 	C 	0.84639 0.04249 0.27773 0.01700
C 	C 	0.85600 0.06276 0.26037 -0.13500
C 	C 	0.92053 0.99017 0.46427 -0.12500
C 	C 	0.94358 0.99771 0.47318 0.00300
C 	C 	0.65128 0.95495 0.48151 0.01500
C 	C 	0.65936 0.92971 0.49773 -0.04300
C 	C 	0.68428 0.92756 0.52095 -0.02900
C 	C 	0.70131 0.95054 0.52711 -0.00500
C 	C 	0.69092 0.97645 0.51920 -0.02900
C 	C 	0.66602 0.97864 0.49592 -0.04200
C 	C 	0.73069 0.94655 0.52437 0.04600
C 	C 	0.75527 0.94303 0.52208 -0.09600
C 	C 	0.63217 0.95558 0.44132 0.00400
C 	C 	0.61620 0.95619 0.40767 -0.04000
H 	H 	0.64758 0.91139 0.48846 0.04300
H 	H 	0.69163 0.90755 0.52894 0.04000
H 	H 	0.65942 0.99842 0.48520 0.04400
C 	C 	0.04553 0.03861 0.75205 -0.11900
C 	C 	0.87428 0.03049 0.84298 -0.17900
C 	C 	0.87813 0.04954 0.87406 0.00700
C 	C 	0.88456 0.07288 0.90625 0.00200
C 	C 	0.89216 0.09360 0.92888 -0.16400
C 	C 	0.70697 0.95830 0.69044 0.01600
C 	C 	0.72037 0.93335 0.67495 -0.04200
C 	C 	0.74767 0.93323 0.65343 -0.02900
C 	C 	0.76158 0.95806 0.64776 0.00100
C 	C 	0.74654 0.98264 0.65419 -0.02900
C 	C 	0.71924 0.98280 0.67592 -0.04300
C 	C 	0.79079 0.95880 0.65287 0.05600
C 	C 	0.81506 0.95720 0.65840 -0.08900
C 	C 	0.68446 0.95924 0.73055 0.00400
C 	C 	0.66561 0.96036 0.76414 -0.04100
H 	H 	0.71059 0.91420 0.68390 0.04400
H 	H 	0.75878 0.91397 0.64624 0.04400
H 	H 	0.75677 0.00189 0.64776 0.04200
H 	H 	0.70857 0.00215 0.68569 0.04300
C 	C 	0.97119 0.42958 0.35247 -0.05000
C 	C 	0.99660 0.43386 0.32324 0.10000
C 	C 	0.00528 0.46075 0.31588 -0.08700
C 	C 	0.99089 0.48321 0.34233 -0.00500
C 	C 	0.96582 0.47892 0.37247 0.07000
C 	C 	0.95574 0.45221 0.37544 -0.05200
N 	N 	0.01336 0.41248 0.30462 -0.19900
H 	H 	0.02436 0.46416 0.29256 0.05500
C 	C 	0.00289 0.51097 0.34025 -0.00600
N 	N 	0.95164 0.50022 0.39943 -0.19400
H 	H 	0.93619 0.44895 0.39737 0.04900
C 	C 	0.99127 0.52956 0.30927 -0.08600
C 	C 	0.99783 0.55752 0.31503 0.10000
C 	C 	0.01930 0.56629 0.34681 -0.05000
C 	C 	0.03261 0.54715 0.37419 -0.05300
C 	C 	0.02398 0.51977 0.37277 0.07000
H 	H 	0.97527 0.52268 0.28416 0.05500
N 	N 	0.98234 0.57587 0.29282 -0.19900
H 	H 	0.04918 0.55379 0.39814 0.05000
N 	N 	0.03563 0.50225 0.40342 -0.19400
H 	H 	0.96795 0.56907 0.26651 0.08500
H 	H 	0.98270 0.59676 0.30461 0.09300
H 	H 	0.05129 0.50896 0.42699 0.08300
H 	H 	0.02911 0.48199 0.40483 0.08800
H 	H 	0.93290 0.49684 0.42069 0.08300
H 	H 	0.95927 0.52017 0.40074 0.08800
H 	H 	0.00996 0.39280 0.31655 0.09400
H 	H 	0.03122 0.41579 0.28060 0.08500
C 	C 	0.95321 0.46168 0.87282 -0.05000
C 	C 	0.97818 0.46954 0.84608 0.10100
C 	C 	0.98567 0.49727 0.84863 -0.08600
C 	C 	0.96943 0.51700 0.87946 -0.00500
C 	C 	0.94541 0.50888 0.90901 0.06900
C 	C 	0.93741 0.48124 0.90501 -0.05300
N 	N 	0.99527 0.45055 0.81882 -0.19900
H 	H 	0.00432 0.50351 0.82685 0.05400
C 	C 	0.97732 0.54621 0.87890 -0.00600
N 	N 	0.93002 0.52741 0.94124 -0.19400
H 	H 	0.91855 0.47507 0.92617 0.04800
C 	C 	0.96463 0.56272 0.84545 -0.08600
C 	C 	0.97328 0.58980 0.84029 0.10000
C 	C 	0.99606 0.59996 0.86694 -0.05000
C 	C 	0.00802 0.58385 0.90203 -0.05400
C 	C 	0.99864 0.55712 0.90879 0.06900
H 	H 	0.94789 0.55448 0.82349 0.05400
N 	N 	0.95926 0.60608 0.81080 -0.19900
H 	H 	0.02508 0.59189 0.92329 0.04900
N 	N 	0.01015 0.54211 0.94395 -0.19400
H 	H 	0.94325 0.59807 0.78941 0.08400
H 	H 	0.96315 0.62706 0.81087 0.09200
H 	H 	0.02634 0.55009 0.96487 0.08300
H 	H 	0.00273 0.52273 0.95187 0.08700
H 	H 	0.91204 0.52131 0.96210 0.08200
H 	H 	0.93598 0.54786 0.94679 0.08700
H 	H 	0.99181 0.42959 0.82062 0.09100
H 	H 	0.01304 0.45666 0.79729 0.08300
C 	C 	0.03991 0.65920 0.73926 -0.05100
C 	C 	0.05570 0.63947 0.70639 0.10100
C 	C 	0.05738 0.64096 0.65170 -0.08600
C 	C 	0.04513 0.66281 0.62974 -0.00600
C 	C 	0.03272 0.68451 0.66317 0.06900
C 	C 	0.02970 0.68223 0.71769 -0.05300
N 	N 	0.06970 0.61946 0.72714 -0.19900
H 	H 	0.06787 0.62488 0.62613 0.05500
C 	C 	0.04216 0.66086 0.57231 -0.00500
N 	N 	0.02372 0.70750 0.64323 -0.19400
H 	H 	0.01860 0.69798 0.74311 0.04900
C 	C 	0.01632 0.65437 0.55414 -0.08600
C 	C 	0.01348 0.64818 0.50037 0.10100
C 	C 	0.03717 0.64713 0.46454 -0.05100
C 	C 	0.06267 0.65548 0.48213 -0.05300
C 	C 	0.06532 0.66280 0.53574 0.06900
H 	H 	0.99843 0.65375 0.58205 0.05500
N 	N 	0.98798 0.64355 0.48332 -0.19900
H 	H 	0.08066 0.65553 0.45433 0.04900
N 	N 	0.08999 0.67177 0.55175 -0.19400
H 	H 	0.97070 0.64334 0.51020 0.08400
H 	H 	0.98492 0.64132 0.44329 0.09200
H 	H 	0.10720 0.67233 0.52477 0.08300
H 	H 	0.09211 0.67916 0.59063 0.08600
H 	H 	0.01374 0.72305 0.66794 0.08200
H 	H 	0.02748 0.71061 0.60343 0.08600
H 	H 	0.07142 0.61967 0.76757 0.09200
H 	H 	0.08031 0.60425 0.70258 0.08400
C 	C 	0.00656 0.99417 0.97537 -0.12900
C 	C 	0.99182 0.04595 0.97644 0.00300
C 	C 	0.98556 0.06931 0.96979 -0.12900
C 	C 	0.99819 0.89075 0.85998 -0.14700
C 	C 	0.98088 0.89347 0.82994 0.02100
C 	C 	0.95911 0.89925 0.79983 0.01800
C 	C 	0.93941 0.90683 0.77962 -0.13600
C 	C 	0.13274 0.02110 0.87384 -0.18100
C 	C 	0.12494 0.00589 0.90635 0.00700
C 	C 	0.11444 0.98620 0.93942 -0.00200
C 	C 	0.10396 0.96772 0.96167 -0.16200
C 	C 	0.03075 0.73259 0.99765 -0.00500
C 	C 	0.00822 0.75015 0.01169 -0.02800
C 	C 	0.01232 0.77623 0.03637 -0.03600
C 	C 	0.03898 0.78486 0.04657 0.00400
C 	C 	0.06077 0.76591 0.03909 -0.03600
C 	C 	0.05665 0.73978 0.01467 -0.02700
C 	C 	0.04505 0.81372 0.05033 0.04900
C 	C 	0.05011 0.83788 0.05348 -0.08500
C 	C 	0.02848 0.71028 0.95791 0.00800
C 	C 	0.02650 0.69163 0.92464 -0.04500
H 	H 	0.98793 0.74444 0.00006 0.04200
H 	H 	0.99518 0.79048 0.04332 0.04600
H 	H 	0.08132 0.77208 0.04847 0.04400
H 	H 	0.07401 0.72594 0.00561 0.04200
C 	C 	0.99131 0.95887 0.25012 -0.11900
C 	C 	0.98047 0.98055 0.24392 0.00400
C 	C 	0.89507 0.89331 0.43407 -0.16300
C 	C 	0.91656 0.88384 0.41464 0.00100
C 	C 	0.94086 0.87476 0.38534 0.00700
C 	C 	0.96074 0.86831 0.35624 -0.17900
C 	C 	0.10119 0.99536 0.37423 -0.14400
C 	C 	0.09905 0.97456 0.34675 0.02400
C 	C 	0.09378 0.94946 0.31914 0.02000
C 	C 	0.08653 0.92766 0.30041 -0.13200
C 	C 	0.03842 0.73866 0.15887 -0.00400
C 	C 	0.01374 0.72436 0.16767 -0.02900
C 	C 	0.01414 0.69885 0.18866 -0.04200
C 	C 	0.03929 0.68751 0.19957 0.01500
C 	C 	0.06396 0.69915 0.18015 -0.04200
C 	C 	0.06348 0.72464 0.15912 -0.02900
C 	C 	0.03974 0.66931 0.24100 0.00400
C 	C 	0.03969 0.65409 0.27577 -0.04000
C 	C 	0.03823 0.76798 0.16902 0.04600
C 	C 	0.03917 0.79250 0.17762 -0.09300
H 	H 	0.99418 0.73439 0.16458 0.04200
H 	H 	0.99490 0.68932 0.20122 0.04300
H 	H 	0.08355 0.68988 0.18609 0.04400
H 	H 	0.08273 0.73488 0.14930 0.04000
