data_crystal

_cell_length_a 46.73141
_cell_length_b 43.58110
_cell_length_c 27.04551
_cell_angle_alpha 89.96763
_cell_angle_beta  89.95734
_cell_angle_gamma 90.47331

_symmetry_space_group_name_	'P 1'
_symmetry_space_group_name_H-M	'P 1'

loop_
_symmetry_equiv_pos_as_xyz
  x,y,z

loop_
_atom_site_label
_atom_site_type_symbol
_atom_site_fract_x
_atom_site_fract_y
_atom_site_fract_z
_atom_site_charge
Zn	Zn	0.48971 0.49463 0.00048 1.21700
C 	C 	0.50095 0.55987 0.99351 0.32400
O 	O 	0.51738 0.48050 0.04990 -0.47700
O 	O 	0.48304 0.56243 0.03081 -0.46200
O 	O 	0.52533 0.52624 0.08742 -0.49800
C 	C 	0.43517 0.51132 0.03828 0.31800
O 	O 	0.45086 0.51016 0.99810 -0.44700
O 	O 	0.44754 0.51260 0.08183 -0.50900
C 	C 	0.53491 0.49982 0.07169 0.31900
O 	O 	0.46880 0.44527 0.99977 -0.32300
Zn	Zn	0.48434 0.53342 0.09097 1.16900
O 	O 	0.50938 0.53258 0.97873 -0.43400
C 	C 	0.48198 0.44167 0.95799 0.27800
O 	O 	0.49704 0.46506 0.94317 -0.38000
Zn	Zn	0.43275 0.07877 0.00195 1.21900
C 	C 	0.37722 0.04853 0.01104 0.32400
O 	O 	0.44991 0.08161 0.06857 -0.46500
O 	O 	0.38999 0.02185 0.00957 -0.45500
O 	O 	0.42083 0.04427 0.09933 -0.50100
C 	C 	0.44799 0.02424 0.94789 0.39100
O 	O 	0.43431 0.05051 0.94563 -0.46400
O 	O 	0.45311 0.01137 0.99083 -0.52800
C 	C 	0.43943 0.06643 0.10662 0.33500
O 	O 	0.47384 0.10379 0.96832 -0.32400
Zn	Zn	0.42763 0.01499 0.04690 1.17100
O 	O 	0.39214 0.07358 0.02020 -0.44100
C 	C 	0.45687 0.12706 0.96314 0.28000
O 	O 	0.43089 0.12277 0.97815 -0.38500
C 	C 	0.55744 0.03548 0.31478 0.14700
C 	C 	0.54014 0.05469 0.28605 -0.11900
H 	H 	0.52373 0.06830 0.30369 0.07300
C 	C 	0.54396 0.05604 0.23458 0.07600
C 	C 	0.56541 0.03856 0.21221 -0.11100
C 	C 	0.58250 0.01910 0.24080 0.07800
C 	C 	0.57878 0.01792 0.29215 -0.12000
H 	H 	0.59206 0.00304 0.31441 0.07300
N 	N 	0.55268 0.03301 0.36715 -0.18000
C 	C 	0.53524 0.01004 0.38499 0.19000
C 	C 	0.53144 0.00626 0.43628 -0.06300
C 	C 	0.54538 0.02650 0.46892 0.03200
C 	C 	0.56267 0.05032 0.45008 -0.06100
C 	C 	0.56607 0.05326 0.39854 0.19000
C 	C 	0.51413 0.98245 0.45534 -0.01100
C 	C 	0.51103 0.97872 0.50644 -0.01500
C 	C 	0.52514 0.99878 0.53932 -0.05900
C 	C 	0.54218 0.02280 0.52048 0.02900
C 	C 	0.55617 0.04300 0.55313 -0.06000
C 	C 	0.57645 0.07065 0.48295 -0.01300
C 	C 	0.57321 0.06704 0.53405 -0.01400
C 	C 	0.52267 0.99508 0.59086 0.19100
N 	N 	0.53674 0.01476 0.62231 -0.18000
C 	C 	0.55303 0.03867 0.60445 0.19000
C 	C 	0.53480 0.00992 0.67479 0.14700
C 	C 	0.51136 0.02137 0.70133 -0.11800
C 	C 	0.50916 0.01614 0.75235 0.08000
C 	C 	0.53090 0.00010 0.77692 -0.11000
C 	C 	0.55445 0.98896 0.75066 0.07900
C 	C 	0.55632 0.99370 0.69949 -0.11700
O 	O 	0.58239 0.07537 0.38038 -0.20300
O 	O 	0.52215 0.99131 0.35394 -0.20500
O 	O 	0.50699 0.97244 0.60902 -0.20100
O 	O 	0.56588 0.05758 0.63550 -0.20300
H 	H 	0.57447 0.98504 0.67896 0.07400
H 	H 	0.49487 0.03405 0.68219 0.07300
H 	H 	0.58975 0.08923 0.46909 0.04900
H 	H 	0.58407 0.08289 0.55866 0.04900
H 	H 	0.50313 0.96670 0.43073 0.04800
H 	H 	0.49769 0.96017 0.52029 0.04900
H 	H 	0.52995 0.99709 0.81670 0.06000
H 	H 	0.56848 0.03969 0.17249 0.05100
Zn	Zn	0.64114 0.91131 0.97678 1.22400
C 	C 	0.69674 0.94090 0.99017 0.33900
O 	O 	0.61837 0.92100 0.03627 -0.47000
O 	O 	0.68565 0.96562 0.97050 -0.45500
O 	O 	0.64610 0.96208 0.05662 -0.50500
C 	C 	0.63397 0.95367 0.89608 0.39700
O 	O 	0.64667 0.92834 0.91036 -0.46800
O 	O 	0.62589 0.97399 0.92911 -0.52600
C 	C 	0.62662 0.94161 0.06881 0.33800
O 	O 	0.60133 0.88385 0.94412 -0.32400
Zn	Zn	0.64572 0.98008 0.99116 1.17400
O 	O 	0.68002 0.91791 0.00348 -0.44600
C 	C 	0.61621 0.85960 0.95423 0.27900
O 	O 	0.64097 0.86471 0.97406 -0.38300
Zn	Zn	0.08143 0.58004 0.01260 1.21900
C 	C 	0.04873 0.63647 0.01135 0.31400
O 	O 	0.06642 0.55389 0.06637 -0.47000
O 	O 	0.02862 0.62245 0.98587 -0.44500
O 	O 	0.02379 0.57844 0.07013 -0.50400
C 	C 	0.05549 0.57146 0.91694 0.37700
O 	O 	0.07585 0.58568 0.94160 -0.46300
O 	O 	0.03346 0.55944 0.94039 -0.52300
C 	C 	0.04263 0.56005 0.09005 0.33900
O 	O 	0.11434 0.54095 0.99182 -0.31500
Zn	Zn	0.01740 0.57762 0.99938 1.17300
O 	O 	0.06802 0.62044 0.03532 -0.43800
C 	C 	0.13331 0.55903 0.01173 0.27100
O 	O 	0.12367 0.58464 0.02894 -0.38600
C 	C 	0.98205 0.48506 0.67333 0.14900
C 	C 	0.99713 0.51053 0.69190 -0.11900
H 	H 	0.00702 0.52672 0.66657 0.07400
C 	C 	0.99890 0.51535 0.74300 0.07900
C 	C 	0.98527 0.49485 0.77550 -0.10900
C 	C 	0.96901 0.47020 0.75703 0.08000
C 	C 	0.96817 0.46478 0.70598 -0.11900
H 	H 	0.95600 0.44551 0.69149 0.07400
N 	N 	0.97956 0.48068 0.62083 -0.18000
C 	C 	0.00154 0.46720 0.59536 0.19000
C 	C 	0.99987 0.46362 0.54370 -0.06000
C 	C 	0.97531 0.47360 0.51867 0.03100
C 	C 	0.95284 0.48702 0.54532 -0.06000
C 	C 	0.95542 0.49050 0.59686 0.19000
C 	C 	0.02240 0.45033 0.51677 -0.01300
C 	C 	0.02039 0.44709 0.46543 -0.01300
C 	C 	0.99580 0.45700 0.44019 -0.06100
C 	C 	0.97323 0.47019 0.46690 0.03100
C 	C 	0.94857 0.47997 0.44193 -0.06100
C 	C 	0.92820 0.49683 0.52010 -0.01300
C 	C 	0.92608 0.49331 0.46884 -0.01300
C 	C 	0.99335 0.45387 0.38854 0.19000
N 	N 	0.96901 0.46324 0.36471 -0.18000
C 	C 	0.94680 0.47617 0.39033 0.19000
C 	C 	0.96658 0.45912 0.31215 0.14700
C 	C 	0.97233 0.48370 0.28010 -0.11700
C 	C 	0.96911 0.47994 0.22889 0.07200
C 	C 	0.95986 0.45164 0.20989 -0.10900
C 	C 	0.95452 0.42684 0.24184 0.07800
C 	C 	0.95802 0.43062 0.29294 -0.12000
O 	O 	0.93466 0.50347 0.62221 -0.20200
O 	O 	0.02432 0.45760 0.61939 -0.20100
O 	O 	0.01453 0.44190 0.36294 -0.20300
O 	O 	0.92363 0.48489 0.36654 -0.20400
H 	H 	0.95397 0.41154 0.31778 0.07300
H 	H 	0.97905 0.50568 0.29505 0.07300
H 	H 	0.91065 0.50718 0.54005 0.04900
H 	H 	0.90692 0.50100 0.45020 0.04900
H 	H 	0.04151 0.44253 0.53544 0.05000
H 	H 	0.03799 0.43683 0.44546 0.05000
H 	H 	0.95761 0.44868 0.17026 0.04300
H 	H 	0.98636 0.49880 0.81505 0.05700
Zn	Zn	0.87531 0.38520 0.98930 1.22200
C 	C 	0.83123 0.42452 0.02762 0.30900
O 	O 	0.89969 0.41118 0.94670 -0.47100
O 	O 	0.84945 0.43181 0.06292 -0.44900
O 	O 	0.88804 0.45602 0.98399 -0.50400
C 	C 	0.89266 0.37828 0.08969 0.39400
O 	O 	0.87260 0.37141 0.05765 -0.47700
O 	O 	0.90819 0.40321 0.08347 -0.52400
C 	C 	0.89737 0.44116 0.94521 0.34100
O 	O 	0.90775 0.34487 0.97713 -0.32600
Zn	Zn	0.89254 0.43893 0.04974 1.16700
O 	O 	0.84000 0.40936 0.98837 -0.43100
C 	C 	0.88835 0.33339 0.94812 0.27900
O 	O 	0.86508 0.34916 0.94405 -0.38200
Zn	Zn	0.02021 0.02369 0.04985 1.22100
C 	C 	0.03699 0.96157 0.07268 0.32000
O 	O 	0.98997 0.03286 0.09763 -0.47700
O 	O 	0.05348 0.97330 0.10740 -0.45200
O 	O 	0.00051 0.99633 0.15400 -0.49300
C 	C 	0.07667 0.03908 0.08101 0.32700
O 	O 	0.06147 0.02707 0.04504 -0.45800
O 	O 	0.06583 0.04092 0.12575 -0.50800
C 	C 	0.98144 0.01176 0.12895 0.31800
O 	O 	0.01858 0.07466 0.02094 -0.33500
Zn	Zn	0.04055 0.00890 0.15205 1.16900
O 	O 	0.01774 0.97866 0.05050 -0.44100
C 	C 	0.00512 0.06330 0.98311 0.28700
O 	O 	0.00133 0.03383 0.98393 -0.38300
C 	C 	0.93796 0.17068 0.85212 -0.03800
C 	C 	0.93382 0.15244 0.89435 0.00100
C 	C 	0.91415 0.16166 0.93054 -0.03700
H 	H 	0.91044 0.14752 0.96293 0.04100
C 	C 	0.90127 0.19039 0.92733 -0.03700
C 	C 	0.90791 0.21012 0.88782 0.00100
C 	C 	0.92494 0.19939 0.84876 -0.03800
H 	H 	0.92958 0.21410 0.81741 0.04000
C 	C 	0.90186 0.24321 0.89225 0.02600
C 	C 	0.87388 0.25323 0.90162 -0.06300
C 	C 	0.86911 0.28343 0.91698 0.01300
C 	C 	0.89230 0.30377 0.92306 -0.07700
C 	C 	0.91992 0.29441 0.90985 0.01300
C 	C 	0.92468 0.26430 0.89457 -0.06200
C 	C 	0.95361 0.12711 0.90513 0.02700
C 	C 	0.94284 0.09760 0.91523 -0.06400
C 	C 	0.96041 0.07565 0.93725 0.01400
C 	C 	0.98883 0.08314 0.94951 -0.07900
C 	C 	0.00021 0.11172 0.93546 0.01400
C 	C 	0.98270 0.13359 0.91327 -0.06300
H 	H 	0.95146 0.05351 0.94737 0.03900
H 	H 	0.02227 0.11751 0.94383 0.03700
H 	H 	0.99132 0.15619 0.90515 0.04800
H 	H 	0.92052 0.09222 0.90841 0.04700
H 	H 	0.85604 0.23727 0.89919 0.04700
H 	H 	0.84762 0.29052 0.92641 0.03900
H 	H 	0.94634 0.25692 0.88709 0.04800
H 	H 	0.93788 0.31015 0.91322 0.03800
H 	H 	0.88780 0.19820 0.95733 0.04100
H 	H 	0.95258 0.16344 0.82338 0.03900
C 	C 	0.90734 0.45855 0.90158 -0.17300
C 	C 	0.92135 0.44482 0.86433 0.03100
C 	C 	0.93459 0.46349 0.82463 -0.04100
C 	C 	0.95208 0.45071 0.79114 -0.06700
H 	H 	0.93136 0.48820 0.82431 0.03900
H 	H 	0.90451 0.48328 0.90108 0.07500
H 	H 	0.95409 0.42591 0.78916 0.04900
H 	H 	0.92424 0.42008 0.86445 0.03700
C 	C 	0.94744 0.39629 0.22162 -0.06900
C 	C 	0.92542 0.39257 0.18709 -0.04000
C 	C 	0.92137 0.36446 0.16295 0.04400
C 	C 	0.89729 0.35955 0.12820 -0.21700
H 	H 	0.93439 0.34490 0.17313 0.02100
H 	H 	0.95938 0.37648 0.23431 0.04900
H 	H 	0.88478 0.33853 0.13146 0.10000
H 	H 	0.91149 0.41175 0.17877 0.03800
C 	C 	0.05374 0.81393 0.07706 -0.03700
C 	C 	0.04598 0.83217 0.03653 -0.00900
C 	C 	0.03974 0.81831 0.99094 -0.03000
H 	H 	0.03387 0.83224 0.95940 0.04000
C 	C 	0.04102 0.78643 0.98603 -0.03100
C 	C 	0.04852 0.76818 0.02670 -0.00900
C 	C 	0.05501 0.78206 0.07216 -0.03800
H 	H 	0.06069 0.76813 0.10380 0.03800
C 	C 	0.04869 0.73450 0.02213 0.03100
C 	C 	0.02321 0.71850 0.01209 -0.07200
C 	C 	0.02320 0.68652 0.00866 0.02000
C 	C 	0.04874 0.67021 0.01526 -0.09600
C 	C 	0.07426 0.68629 0.02526 0.02100
C 	C 	0.07423 0.71829 0.02867 -0.07000
C 	C 	0.04403 0.86570 0.04209 0.03000
C 	C 	0.01750 0.88027 0.03749 -0.07100
C 	C 	0.01531 0.91178 0.04611 0.02000
C 	C 	0.03965 0.92897 0.05950 -0.09900
C 	C 	0.06631 0.91449 0.06279 0.02000
C 	C 	0.06849 0.88301 0.05410 -0.07100
H 	H 	0.99459 0.92265 0.04371 0.03400
H 	H 	0.08531 0.92758 0.07243 0.03100
H 	H 	0.08910 0.87198 0.05725 0.04600
H 	H 	0.99850 0.86706 0.02827 0.04600
H 	H 	0.00336 0.73083 0.00734 0.04400
H 	H 	0.00331 0.67443 0.00135 0.02300
H 	H 	0.09403 0.73050 0.03628 0.04700
H 	H 	0.09416 0.67404 0.02997 0.03500
H 	H 	0.03608 0.77590 0.95074 0.04000
H 	H 	0.05850 0.82443 0.11244 0.03700
C 	C 	0.01127 0.54408 0.76243 -0.06600
C 	C 	0.03311 0.54325 0.79446 -0.04600
C 	C 	0.03380 0.56470 0.83653 0.04400
C 	C 	0.05815 0.56730 0.86613 -0.20100
H 	H 	0.01385 0.57486 0.84898 0.01500
H 	H 	0.99907 0.56505 0.75835 0.04700
H 	H 	0.07927 0.56620 0.84943 0.09700
H 	H 	0.04720 0.52351 0.79484 0.04800
C 	C 	0.97507 0.50566 0.19490 -0.06500
C 	C 	0.00157 0.51750 0.19094 -0.04900
C 	C 	0.00859 0.53926 0.15068 0.03300
C 	C 	0.03584 0.54360 0.13629 -0.17800
H 	H 	0.99129 0.54999 0.13027 0.01100
H 	H 	0.95851 0.51263 0.16911 0.02800
H 	H 	0.05304 0.53233 0.15614 0.08600
H 	H 	0.01845 0.50954 0.21537 0.04700
C 	C 	0.83685 0.94496 0.03284 -0.05100
C 	C 	0.81232 0.95373 0.05902 0.00500
C 	C 	0.81517 0.96989 0.10366 -0.04200
H 	H 	0.79634 0.97675 0.12412 0.03800
C 	C 	0.84232 0.97797 0.12124 -0.03600
C 	C 	0.86682 0.96994 0.09434 -0.00500
C 	C 	0.86400 0.95303 0.05043 -0.03300
H 	H 	0.88280 0.94677 0.02939 0.03700
C 	C 	0.89526 0.98097 0.11026 0.03200
C 	C 	0.90169 0.01246 0.10940 -0.07300
C 	C 	0.92958 0.02273 0.11857 0.02200
C 	C 	0.95132 0.00158 0.12867 -0.10600
C 	C 	0.94453 0.97018 0.13208 0.02400
C 	C 	0.91661 0.95993 0.12283 -0.07300
C 	C 	0.78366 0.94759 0.03835 0.02000
C 	C 	0.76426 0.92863 0.06385 -0.07000
C 	C 	0.73618 0.92522 0.04679 0.02500
C 	C 	0.72723 0.94089 0.00415 -0.11700
C 	C 	0.74706 0.95879 0.97750 0.02900
C 	C 	0.77513 0.96215 0.99457 -0.06400
H 	H 	0.72116 0.91129 0.06770 0.03600
H 	H 	0.74057 0.97061 0.94414 0.03000
H 	H 	0.79004 0.97669 0.97447 0.04700
H 	H 	0.77076 0.91707 0.09744 0.04700
H 	H 	0.88528 0.02889 0.10001 0.04600
H 	H 	0.93449 0.04703 0.11633 0.03100
H 	H 	0.91177 0.93558 0.12401 0.04700
H 	H 	0.96110 0.95359 0.13966 0.03100
H 	H 	0.84431 0.99091 0.15527 0.03700
H 	H 	0.83485 0.93236 0.99848 0.04800
C 	C 	0.62721 0.95758 0.84819 -0.23500
C 	C 	0.61842 0.98503 0.83111 0.06700
C 	C 	0.60298 0.98780 0.78374 -0.05300
C 	C 	0.57766 0.97355 0.77770 -0.06000
H 	H 	0.60853 0.00699 0.75981 0.04700
H 	H 	0.62857 0.93820 0.82298 0.10600
H 	H 	0.57197 0.95448 0.80182 0.05000
H 	H 	0.62161 0.00568 0.85306 0.01300
C 	C 	0.60457 0.00030 0.21677 -0.07100
C 	C 	0.59707 0.97804 0.18496 -0.04200
C 	C 	0.61810 0.96591 0.14923 0.02700
C 	C 	0.60992 0.94556 0.11462 -0.17900
H 	H 	0.63952 0.97586 0.14801 0.02700
H 	H 	0.62699 0.00627 0.22205 0.04600
H 	H 	0.58931 0.93398 0.11789 0.08000
H 	H 	0.57470 0.97114 0.18191 0.03900
C 	C 	0.23601 0.03816 0.99330 -0.01100
C 	C 	0.25463 0.05737 0.01998 -0.01700
C 	C 	0.24349 0.07811 0.05456 -0.03100
H 	H 	0.25770 0.09304 0.07532 0.03600
C 	C 	0.21404 0.07896 0.06346 -0.04600
C 	C 	0.19552 0.05901 0.03797 0.00800
C 	C 	0.20659 0.03893 0.00233 -0.06500
H 	H 	0.19246 0.02342 0.98249 0.05100
C 	C 	0.16485 0.05773 0.05074 0.02700
C 	C 	0.15627 0.04893 0.09845 -0.07100
C 	C 	0.12729 0.04428 0.10908 0.02100
C 	C 	0.10663 0.04822 0.07199 -0.10200
C 	C 	0.11514 0.05841 0.02489 0.01800
C 	C 	0.14412 0.06316 0.01434 -0.07600
C 	C 	0.28585 0.05442 0.01403 0.02700
C 	C 	0.29930 0.02680 0.02636 -0.07300
C 	C 	0.32907 0.02453 0.02386 0.02400
C 	C 	0.34571 0.04995 0.00919 -0.10700
C 	C 	0.33214 0.07732 0.99547 0.03200
C 	C 	0.30235 0.07954 0.99792 -0.06400
H 	H 	0.33921 0.00329 0.03463 0.02100
H 	H 	0.34467 0.09696 0.98336 0.03600
H 	H 	0.29211 0.10086 0.98783 0.05000
H 	H 	0.28672 0.00729 0.03887 0.04400
H 	H 	0.17212 0.04475 0.12683 0.04400
H 	H 	0.12102 0.03647 0.14558 0.01600
H 	H 	0.15052 0.07038 0.97759 0.05500
H 	H 	0.09936 0.06207 0.99621 0.04300
H 	H 	0.20567 0.09469 0.09079 0.04000
H 	H 	0.24441 0.02224 0.96629 0.03500
C 	C 	0.48480 0.02874 0.78063 -0.06400
C 	C 	0.47243 0.01174 0.81909 -0.04800
C 	C 	0.45880 0.02626 0.85858 0.04300
C 	C 	0.45664 0.01012 0.90665 -0.21500
H 	H 	0.45312 0.05036 0.85580 0.03500
H 	H 	0.47796 0.05213 0.77365 0.04900
H 	H 	0.46525 0.98708 0.90959 0.09100
H 	H 	0.47688 0.98733 0.82170 0.04500
C 	C 	0.45252 0.06982 0.15592 -0.17800
C 	C 	0.47941 0.08043 0.16094 0.02900
C 	C 	0.49681 0.07129 0.20412 -0.04500
C 	C 	0.52532 0.07528 0.20348 -0.06700
H 	H 	0.48694 0.05775 0.23344 0.04200
H 	H 	0.44197 0.05887 0.18722 0.07800
H 	H 	0.53512 0.08878 0.17407 0.04300
H 	H 	0.48971 0.09243 0.13036 0.03100
C 	C 	0.48730 0.29832 0.87158 -0.03800
C 	C 	0.49560 0.31477 0.91384 0.00100
C 	C 	0.50377 0.29884 0.95660 -0.03700
H 	H 	0.51036 0.31135 0.98933 0.04200
C 	C 	0.50175 0.26683 0.95823 -0.03700
C 	C 	0.49168 0.25044 0.91698 0.00100
C 	C 	0.48552 0.26627 0.87302 -0.03800
H 	H 	0.47819 0.25383 0.84069 0.04000
C 	C 	0.48389 0.21761 0.92199 0.02600
C 	C 	0.50412 0.19630 0.93866 -0.06300
C 	C 	0.49565 0.16620 0.95000 0.01200
C 	C 	0.46687 0.15720 0.94474 -0.07700
C 	C 	0.44703 0.17809 0.92553 0.01300
C 	C 	0.45546 0.20813 0.91442 -0.06200
C 	C 	0.49211 0.34835 0.91562 0.02600
C 	C 	0.51618 0.36770 0.91883 -0.06300
C 	C 	0.51281 0.39899 0.92879 0.01300
C 	C 	0.48535 0.41102 0.93621 -0.07600
C 	C 	0.46127 0.39197 0.93016 0.01300
C 	C 	0.46462 0.36080 0.91969 -0.06200
H 	H 	0.53157 0.41348 0.93336 0.03800
H 	H 	0.43998 0.40106 0.93549 0.03600
H 	H 	0.44590 0.34607 0.91696 0.04800
H 	H 	0.53749 0.35832 0.91541 0.04800
H 	H 	0.52620 0.20328 0.94409 0.04600
H 	H 	0.51124 0.15027 0.96441 0.03800
H 	H 	0.43967 0.22433 0.90151 0.04800
H 	H 	0.42488 0.17128 0.92040 0.04000
H 	H 	0.50667 0.25490 0.99229 0.04100
H 	H 	0.48121 0.31041 0.83824 0.04000
C 	C 	0.26890 0.53991 0.06412 -0.03800
C 	C 	0.25321 0.52999 0.02278 -0.00700
C 	C 	0.26711 0.51421 0.98457 -0.03000
H 	H 	0.25521 0.50647 0.95250 0.04000
C 	C 	0.29656 0.50897 0.98720 -0.03100
C 	C 	0.31239 0.51963 0.02793 -0.00700
C 	C 	0.29836 0.53488 0.06658 -0.03800
H 	H 	0.31037 0.54325 0.09813 0.03600
C 	C 	0.34379 0.51596 0.02921 0.02300
C 	C 	0.36086 0.52866 0.99157 -0.06300
C 	C 	0.39067 0.52666 0.99409 0.02900
C 	C 	0.40371 0.51213 0.03448 -0.10900
C 	C 	0.38661 0.49903 0.07177 0.02100
C 	C 	0.35678 0.50084 0.06905 -0.07100
C 	C 	0.22251 0.53736 0.01856 0.02700
C 	C 	0.20203 0.51377 0.01417 -0.06400
C 	C 	0.17291 0.52082 0.01122 0.01000
C 	C 	0.16403 0.55153 0.01293 -0.07600
C 	C 	0.18460 0.57509 0.01681 0.01100
C 	C 	0.21367 0.56804 0.01944 -0.06400
H 	H 	0.15729 0.50241 0.00839 0.03800
H 	H 	0.17808 0.59888 0.01763 0.03900
H 	H 	0.22933 0.58643 0.02225 0.04500
H 	H 	0.20863 0.49001 0.01354 0.04500
H 	H 	0.35106 0.54054 0.96081 0.04700
H 	H 	0.40362 0.53698 0.96520 0.03500
H 	H 	0.34379 0.49072 0.09807 0.04600
H 	H 	0.39639 0.48742 0.10282 0.02800
H 	H 	0.30714 0.49695 0.95736 0.04000
H 	H 	0.25832 0.55188 0.09400 0.03900
C 	C 	0.69707 0.46903 0.01147 -0.04500
C 	C 	0.71235 0.45571 0.05050 -0.00000
C 	C 	0.69866 0.45018 0.09589 -0.03900
H 	H 	0.71029 0.43988 0.12621 0.03900
C 	C 	0.66990 0.45789 0.10216 -0.03900
C 	C 	0.65463 0.47123 0.06313 0.00100
C 	C 	0.66833 0.47678 0.01777 -0.04500
H 	H 	0.65666 0.48694 0.98736 0.04700
C 	C 	0.62414 0.47877 0.06936 0.02700
C 	C 	0.60378 0.45523 0.07537 -0.07000
C 	C 	0.57467 0.46220 0.07802 0.02000
C 	C 	0.56566 0.49281 0.07475 -0.10400
C 	C 	0.58614 0.51643 0.07021 0.02000
C 	C 	0.61524 0.50942 0.06746 -0.07100
C 	C 	0.74278 0.44796 0.04410 0.02900
C 	C 	0.76382 0.46370 0.07118 -0.06900
C 	C 	0.79266 0.45624 0.06549 0.01800
C 	C 	0.80077 0.43284 0.03270 -0.09100
C 	C 	0.77964 0.41721 0.00534 0.01200
C 	C 	0.75079 0.42477 0.01102 -0.07400
H 	H 	0.80870 0.46875 0.08643 0.02500
H 	H 	0.78549 0.39900 0.98014 0.04500
H 	H 	0.73465 0.41246 0.99001 0.05500
H 	H 	0.75783 0.48178 0.09655 0.04500
H 	H 	0.61047 0.43151 0.07704 0.04600
H 	H 	0.55911 0.44379 0.08188 0.03200
H 	H 	0.63084 0.52775 0.06310 0.04500
H 	H 	0.57948 0.54011 0.06726 0.02900
H 	H 	0.65949 0.45351 0.13730 0.03800
H 	H 	0.70750 0.47348 0.97636 0.04600
C 	C 	0.55562 0.72483 0.90113 -0.03800
C 	C 	0.57318 0.73578 0.93947 -0.00100
C 	C 	0.58005 0.71636 0.97907 -0.03200
H 	H 	0.59350 0.72461 0.00891 0.03200
C 	C 	0.56916 0.68641 0.98068 -0.03100
C 	C 	0.55124 0.67558 0.94277 -0.00400
C 	C 	0.54468 0.69484 0.90279 -0.03700
H 	H 	0.53090 0.68670 0.87331 0.03900
C 	C 	0.53781 0.64487 0.94682 0.03000
C 	C 	0.55489 0.61857 0.94981 -0.06900
C 	C 	0.54253 0.59013 0.96161 0.02100
C 	C 	0.51300 0.58780 0.97066 -0.09900
C 	C 	0.49572 0.61373 0.96450 0.02100
C 	C 	0.50806 0.64213 0.95266 -0.07000
C 	C 	0.58413 0.76769 0.93859 0.02700
C 	C 	0.61372 0.77342 0.93891 -0.06300
C 	C 	0.62416 0.80347 0.94274 0.01200
C 	C 	0.60511 0.82817 0.94614 -0.07600
C 	C 	0.57549 0.82251 0.94404 0.01100
C 	C 	0.56505 0.79239 0.94042 -0.06300
H 	H 	0.64706 0.80753 0.94351 0.04100
H 	H 	0.56054 0.84131 0.94650 0.03800
H 	H 	0.54217 0.78821 0.94019 0.04600
H 	H 	0.62862 0.75454 0.93695 0.04800
H 	H 	0.57785 0.62038 0.94477 0.04800
H 	H 	0.55609 0.57029 0.96617 0.03500
H 	H 	0.49465 0.66222 0.95003 0.04700
H 	H 	0.47284 0.61212 0.97070 0.03200
H 	H 	0.57416 0.67181 0.01190 0.03000
H 	H 	0.55035 0.73957 0.87024 0.04000
