data_crystal

_cell_length_a 30.62903
_cell_length_b 29.80261
_cell_length_c 42.68035
_cell_angle_alpha 95.52403
_cell_angle_beta  95.52122
_cell_angle_gamma 125.59829

_symmetry_space_group_name_	'P 1'
_symmetry_space_group_name_H-M	'P 1'

loop_
_symmetry_equiv_pos_as_xyz
  x,y,z

loop_
_atom_site_label
_atom_site_type_symbol
_atom_site_fract_x
_atom_site_fract_y
_atom_site_fract_z
_atom_site_charge
C 	C 	0.94224 0.01302 0.98990 0.11700
C 	C 	0.01634 0.01052 0.98325 0.11500
N 	N 	0.99494 0.03956 0.98609 -0.14000
N 	N 	0.05184 0.06618 0.46666 -0.14100
C 	C 	0.97127 0.06640 0.46097 -0.02100
C 	C 	0.00326 0.12545 0.46715 -0.01800
C 	C 	0.97908 0.15256 0.46186 -0.05600
C 	C 	0.92262 0.12117 0.45094 0.03100
C 	C 	0.89050 0.06223 0.44455 -0.05600
C 	C 	0.91467 0.03493 0.44953 -0.02100
C 	C 	0.85748 0.14086 0.46135 -0.05700
H 	H 	0.04682 0.15042 0.47623 0.04000
H 	H 	0.84693 0.03760 0.43555 0.04200
H 	H 	0.83921 0.10706 0.47494 0.04200
H 	H 	0.75237 0.10425 0.45338 0.04500
C 	C 	0.13576 0.07258 0.47455 -0.02700
C 	C 	0.16648 0.06827 0.49903 -0.01500
C 	C 	0.22292 0.09804 0.50127 -0.06000
C 	C 	0.24902 0.13164 0.47879 0.03400
C 	C 	0.21848 0.13653 0.45450 -0.05900
C 	C 	0.16206 0.10711 0.45239 -0.01500
C 	C 	0.30865 0.16320 0.48150 -0.04800
H 	H 	0.13877 0.11077 0.43341 0.03700
H 	H 	0.33510 0.18969 0.50430 0.04100
H 	H 	0.40085 0.16528 0.50534 0.04700
C 	C 	0.72468 0.11811 0.01258 -0.07900
C 	C 	0.78950 0.09970 0.99591 -0.05700
C 	C 	0.87006 0.10009 0.99615 0.03200
C 	C 	0.93147 0.08492 0.97386 -0.01500
C 	C 	0.91900 0.04449 0.99292 -0.02600
C 	C 	0.88313 0.03316 0.01428 -0.01500
C 	C 	0.85914 0.06117 0.01610 -0.05800
H 	H 	0.66714 0.13358 0.02389 0.03600
H 	H 	0.71786 0.09345 0.03111 0.04700
H 	H 	0.76503 0.05529 0.99711 0.04200
H 	H 	0.95914 0.09411 0.95732 0.03800
H 	H 	0.83221 0.05271 0.03302 0.04300
C 	C 	0.18392 0.09337 0.97416 0.03200
C 	C 	0.11299 0.09704 0.99204 -0.01700
C 	C 	0.07383 0.03946 0.97935 -0.02400
C 	C 	0.08997 0.00935 0.96338 -0.02000
C 	C 	0.14470 0.03619 0.96077 -0.05700
H 	H 	0.32049 0.05679 0.96549 0.04600
H 	H 	0.24694 0.06176 0.99077 0.04300
H 	H 	0.15659 0.01260 0.94829 0.04200
Cu	Cu	0.59837 0.21882 0.99705 0.92700
Cu	Cu	0.63084 0.21810 0.92631 0.86600
Cu	Cu	0.62298 0.30638 0.95578 0.89600
Cu	Cu	0.60892 0.32797 0.02258 0.89300
C 	C 	0.62989 0.26581 0.06425 0.28800
O 	O 	0.52151 0.19089 0.00171 -0.36300
C 	C 	0.60143 0.27064 0.88552 0.28300
O 	O 	0.64523 0.30637 0.99934 -0.64100
O 	O 	0.58450 0.22366 0.95175 -0.64200
O 	O 	0.62689 0.17391 0.99091 -0.37700
O 	O 	0.68441 0.23016 0.95958 -0.44300
O 	O 	0.60491 0.28926 0.05902 -0.38600
O 	O 	0.66592 0.38744 0.96144 -0.38600
C 	C 	0.67242 0.42133 0.98685 0.29100
C 	C 	0.50070 0.21643 0.99199 0.28400
O 	O 	0.53322 0.26891 0.98836 -0.39300
O 	O 	0.64145 0.40177 0.00883 -0.39600
O 	O 	0.62392 0.22807 0.04166 -0.36300
C 	C 	0.67084 0.19336 0.97837 0.29100
O 	O 	0.60541 0.30467 0.90992 -0.38100
O 	O 	0.59515 0.22395 0.88944 -0.42200
H 	H 	0.68528 0.32917 0.00677 0.16100
H 	H 	0.54561 0.20082 0.94114 0.17400
Cu	Cu	0.76386 0.35938 0.46618 0.92700
Cu	Cu	0.75316 0.30562 0.53104 0.86900
Cu	Cu	0.66988 0.31850 0.50263 0.89700
Cu	Cu	0.66298 0.35823 0.44174 0.89300
C 	C 	0.73055 0.35015 0.39917 0.28700
O 	O 	0.79526 0.44189 0.47025 -0.36200
C 	C 	0.69904 0.32941 0.57276 0.28800
O 	O 	0.67811 0.31186 0.45893 -0.64100
O 	O 	0.75094 0.35957 0.51069 -0.64200
O 	O 	0.80344 0.32493 0.46848 -0.37500
O 	O 	0.74221 0.25732 0.49386 -0.44300
O 	O 	0.70724 0.37434 0.40729 -0.38700
O 	O 	0.59115 0.27446 0.49175 -0.38500
C 	C 	0.56354 0.28072 0.46905 0.29100
C 	C 	0.76915 0.46091 0.48133 0.28400
O 	O 	0.71710 0.42552 0.48240 -0.39500
O 	O 	0.58863 0.32167 0.45255 -0.39600
O 	O 	0.76205 0.34720 0.42099 -0.36000
C 	C 	0.78004 0.27513 0.47622 0.29000
O 	O 	0.66063 0.31258 0.54758 -0.38900
O 	O 	0.74440 0.33526 0.56953 -0.42100
H 	H 	0.65635 0.27274 0.44693 0.16200
H 	H 	0.77122 0.39715 0.52450 0.17200
C 	C 	0.59796 0.28200 0.85271 -0.08800
C 	C 	0.57857 0.23948 0.82596 0.01000
C 	C 	0.58328 0.25224 0.79525 -0.06700
C 	C 	0.60678 0.30747 0.79084 0.02500
C 	C 	0.62287 0.34922 0.81724 -0.06600
C 	C 	0.61868 0.33664 0.84805 0.01000
C 	C 	0.61947 0.32253 0.75925 -0.00100
C 	C 	0.67382 0.36259 0.75618 -0.03900
C 	C 	0.68727 0.37044 0.72582 -0.03900
C 	C 	0.64664 0.33785 0.69823 -0.00100
C 	C 	0.59185 0.30017 0.70130 -0.03900
C 	C 	0.57828 0.29275 0.73169 -0.03900
C 	C 	0.66215 0.33863 0.66647 0.02600
C 	C 	0.69731 0.32429 0.66076 -0.06900
C 	C 	0.71020 0.32242 0.63039 0.01400
C 	C 	0.68778 0.33454 0.60526 -0.09100
C 	C 	0.65311 0.34961 0.61107 0.01500
C 	C 	0.64041 0.35171 0.64157 -0.06700
H 	H 	0.56122 0.19683 0.82900 0.03000
H 	H 	0.57044 0.21959 0.77503 0.04300
H 	H 	0.64025 0.39181 0.81403 0.04500
H 	H 	0.63334 0.36982 0.86834 0.03800
H 	H 	0.70592 0.38601 0.77727 0.03600
H 	H 	0.72957 0.40027 0.72371 0.03700
H 	H 	0.56010 0.27509 0.68015 0.03700
H 	H 	0.53608 0.26241 0.73379 0.03700
H 	H 	0.71395 0.31368 0.67975 0.04300
H 	H 	0.73664 0.31031 0.62623 0.02400
H 	H 	0.63595 0.35959 0.59201 0.03200
H 	H 	0.61348 0.36316 0.64579 0.04600
C 	C 	0.73253 0.33925 0.36514 -0.08500
C 	C 	0.73718 0.37594 0.34507 0.01400
C 	C 	0.73512 0.36355 0.31233 -0.06600
C 	C 	0.72827 0.31434 0.29929 0.02600
C 	C 	0.72508 0.27836 0.31942 -0.06600
C 	C 	0.72747 0.29092 0.35228 0.01200
C 	C 	0.72080 0.29882 0.26432 -0.00100
C 	C 	0.66902 0.25450 0.24664 -0.03900
C 	C 	0.65919 0.24608 0.21318 -0.03800
C 	C 	0.70112 0.28185 0.19713 -0.00100
C 	C 	0.75381 0.32389 0.21476 -0.03900
C 	C 	0.76357 0.33242 0.24824 -0.03900
C 	C 	0.68833 0.27955 0.16251 0.02700
C 	C 	0.69441 0.32561 0.15179 -0.06700
C 	C 	0.67701 0.32164 0.11951 0.01300
C 	C 	0.65306 0.27146 0.09759 -0.08700
C 	C 	0.64885 0.22601 0.10810 0.01600
C 	C 	0.66638 0.23006 0.14045 -0.06700
H 	H 	0.74198 0.41382 0.35479 0.03500
H 	H 	0.73767 0.39158 0.29695 0.04600
H 	H 	0.71992 0.24033 0.30956 0.04500
H 	H 	0.72403 0.26242 0.36757 0.03100
H 	H 	0.63582 0.22818 0.25886 0.03700
H 	H 	0.61843 0.21336 0.19980 0.03900
H 	H 	0.78665 0.35122 0.20258 0.03800
H 	H 	0.80383 0.36639 0.26170 0.03900
H 	H 	0.71134 0.36401 0.16863 0.04500
H 	H 	0.68135 0.35731 0.11161 0.02100
H 	H 	0.63069 0.18709 0.09146 0.03800
H 	H 	0.66188 0.19441 0.14847 0.04600
C 	C 	0.87613 0.69947 0.50282 -0.05600
C 	C 	0.84838 0.63833 0.49885 0.04800
C 	C 	0.79120 0.60052 0.49059 -0.07700
C 	C 	0.76531 0.54267 0.48557 0.01900
C 	C 	0.79634 0.52198 0.48891 -0.09400
C 	C 	0.85344 0.55990 0.49827 0.02000
C 	C 	0.87928 0.61784 0.50341 -0.07700
H 	H 	0.76686 0.61595 0.48780 0.04700
H 	H 	0.72122 0.51397 0.47847 0.02500
H 	H 	0.87782 0.54458 0.50143 0.02900
H 	H 	0.92339 0.64677 0.51033 0.04700
C 	C 	0.89753 0.15042 0.44592 -0.04700
C 	C 	0.83733 0.17546 0.46023 0.04700
C 	C 	0.78120 0.14963 0.45748 -0.08000
C 	C 	0.76219 0.18226 0.46099 0.02000
C 	C 	0.79921 0.24114 0.46748 -0.10100
C 	C 	0.85520 0.26706 0.46892 0.01900
C 	C 	0.87428 0.23444 0.46564 -0.07800
H 	H 	0.00419 0.19806 0.46668 0.04100
H 	H 	0.91525 0.18353 0.43186 0.04100
H 	H 	0.71880 0.16175 0.45944 0.02500
H 	H 	0.88421 0.31246 0.47404 0.02800
H 	H 	0.91786 0.25504 0.46857 0.04700
C 	C 	0.32999 0.15665 0.45695 -0.05600
C 	C 	0.38967 0.18714 0.45985 0.04700
C 	C 	0.41542 0.21419 0.43518 -0.07800
C 	C 	0.47197 0.24393 0.43793 0.01800
C 	C 	0.50338 0.24676 0.46540 -0.09200
C 	C 	0.47719 0.21791 0.48960 0.01800
C 	C 	0.42061 0.18789 0.48671 -0.07600
H 	H 	0.24632 0.09465 0.52033 0.04200
H 	H 	0.23848 0.16325 0.43737 0.04400
H 	H 	0.30346 0.13058 0.43408 0.04300
H 	H 	0.39169 0.21275 0.41404 0.04600
H 	H 	0.49132 0.26484 0.41872 0.02700
H 	H 	0.50062 0.21914 0.51080 0.03600
C 	C 	0.70856 0.48266 0.98791 -0.09200
C 	C 	0.75202 0.50608 0.97106 0.01900
C 	C 	0.78608 0.56403 0.97193 -0.07800
C 	C 	0.77689 0.59914 0.98943 0.04700
C 	C 	0.73424 0.57601 0.00688 -0.07700
C 	C 	0.70002 0.51807 0.00594 0.01900
H 	H 	0.75969 0.47950 0.95748 0.02800
H 	H 	0.81946 0.58161 0.95885 0.04600
H 	H 	0.72783 0.60292 0.02132 0.04700
H 	H 	0.66682 0.50079 0.01913 0.03100
C 	C 	0.70338 0.17183 0.98400 -0.10100
C 	C 	0.69571 0.14065 0.00835 0.02100
C 	C 	0.76218 0.12719 0.99289 0.04700
C 	C 	0.77019 0.15866 0.96872 -0.07900
C 	C 	0.74120 0.18108 0.96440 0.01700
C 	C 	0.84370 0.12879 0.99712 -0.04800
C 	C 	0.90723 0.11269 0.97556 -0.05900
H 	H 	0.79801 0.16475 0.95283 0.04500
H 	H 	0.74738 0.20466 0.94538 0.01800
H 	H 	0.86804 0.17330 0.99614 0.04000
H 	H 	0.91663 0.14332 0.96047 0.04100
C 	C 	0.44126 0.18771 0.98768 -0.09300
C 	C 	0.40464 0.12948 0.97637 0.02000
C 	C 	0.34835 0.10183 0.97396 -0.07800
C 	C 	0.32811 0.13209 0.98271 0.04800
C 	C 	0.36481 0.19039 0.99410 -0.07700
C 	C 	0.42100 0.21809 0.99622 0.02000
C 	C 	0.26893 0.10168 0.98261 -0.05600
C 	C 	0.24197 0.12185 0.97194 -0.04800
C 	C 	0.16766 0.12388 0.98924 -0.05800
H 	H 	0.41974 0.10561 0.96958 0.02600
H 	H 	0.34997 0.21400 0.00205 0.04700
H 	H 	0.44887 0.26291 0.00538 0.02500
H 	H 	0.26362 0.16139 0.96338 0.04000
H 	H 	0.19756 0.16819 0.99929 0.04200
H 	H 	0.10130 0.12085 0.00448 0.03900
H 	H 	0.83684 0.69395 0.45770 0.04100
C 	C 	0.07628 0.04088 0.47209 0.11700
C 	C 	0.99732 0.03787 0.46598 0.11500
H 	H 	0.87402 0.00287 0.02957 0.03600
H 	H 	0.90600 0.72673 0.52451 0.04300
C 	C 	0.86750 0.72160 0.47908 -0.04700
C 	C 	0.81369 0.66045 0.99057 -0.05600
C 	C 	0.79354 0.68956 0.98583 -0.04800
H 	H 	0.85754 0.68150 0.99387 0.04300
H 	H 	0.74970 0.66851 0.98244 0.04100
C 	C 	0.89832 0.78316 0.48152 0.03300
H 	H 	0.82861 0.77732 0.45876 0.04200
H 	H 	0.78998 0.76869 0.01933 0.04300
C 	C 	0.83033 0.75083 0.98701 0.03400
C 	C 	0.87205 0.80496 0.46853 -0.05900
H 	H 	0.97608 0.80301 0.50287 0.04300
H 	H 	0.87734 0.74671 0.95363 0.04300
C 	C 	0.95482 0.81941 0.49374 -0.05800
C 	C 	0.82211 0.78608 0.00531 -0.05900
C 	C 	0.87163 0.77375 0.96859 -0.05900
C 	C 	0.90192 0.86222 0.46738 -0.01500
C 	C 	0.98451 0.87672 0.49313 -0.01400
H 	H 	0.88122 0.87805 0.45654 0.03800
C 	C 	0.90503 0.83155 0.96899 -0.01400
C 	C 	0.85554 0.84391 0.00578 -0.01400
H 	H 	0.14669 0.04223 0.51647 0.03600
H 	H 	0.93640 0.84862 0.95444 0.03800
C 	C 	0.95857 0.89838 0.47925 -0.02600
H 	H 	0.02796 0.90407 0.50285 0.03800
C 	C 	0.89716 0.86699 0.98757 -0.02600
H 	H 	0.84920 0.87074 0.02038 0.03800
C 	C 	0.93185 0.92793 0.98759 0.12000
C 	C 	0.99140 0.95791 0.47537 0.12000
N 	N 	0.98471 0.95475 0.98411 -0.13900
N 	N 	0.91076 0.95720 0.99057 -0.14000
H 	H 	0.06012 0.96523 0.95287 0.04100
N 	N 	0.96715 0.98370 0.47046 -0.14000
N 	N 	0.04599 0.98675 0.47624 -0.14100
H 	H 	0.88949 0.98946 0.44418 0.04100
