data_crystal

_cell_length_a 39.05091
_cell_length_b 41.54027
_cell_length_c 25.32429
_cell_angle_alpha 89.83523
_cell_angle_beta  90.00011
_cell_angle_gamma 89.99999

_symmetry_space_group_name_	'P 1'
_symmetry_space_group_name_H-M	'P 1'

loop_
_symmetry_equiv_pos_as_xyz
  x,y,z

loop_
_atom_site_label
_atom_site_type_symbol
_atom_site_fract_x
_atom_site_fract_y
_atom_site_fract_z
_atom_site_charge
C 	C 	0.49583 0.55682 0.86516 0.10200
N 	N 	0.47566 0.53386 0.88623 -0.17200
C 	C 	0.44477 0.53692 0.86315 0.10200
C 	C 	0.41323 0.52313 0.88653 -0.07300
C 	C 	0.41355 0.49000 0.90808 0.08600
C 	C 	0.38122 0.54215 0.88801 0.04100
C 	C 	0.37929 0.57007 0.91892 -0.05400
C 	C 	0.34795 0.58588 0.92536 -0.03100
C 	C 	0.31841 0.57398 0.90067 0.01400
C 	C 	0.35188 0.53086 0.86201 -0.05100
N 	N 	0.43862 0.46869 0.89717 -0.12700
C 	C 	0.39478 0.48041 0.95172 -0.05000
C 	C 	0.43522 0.44514 0.93349 0.09500
C 	C 	0.46111 0.41964 0.94169 -0.07100
C 	C 	0.45056 0.38881 0.96573 0.01400
C 	C 	0.42741 0.33499 0.95642 -0.06000
C 	C 	0.45189 0.38467 0.02067 -0.02100
C 	C 	0.44026 0.35600 0.04356 -0.04800
C 	C 	0.42765 0.33117 0.01151 0.04400
N 	N 	0.51447 0.45028 0.92384 -0.17200
C 	C 	0.54728 0.44216 0.91404 0.10300
C 	C 	0.54972 0.40961 0.90269 -0.06300
C 	C 	0.51687 0.39747 0.90574 -0.05900
C 	C 	0.57665 0.46254 0.93022 -0.08200
C 	C 	0.61087 0.44819 0.93780 0.04900
C 	C 	0.66522 0.43108 0.90096 -0.03000
C 	C 	0.67861 0.42746 0.95204 0.01700
C 	C 	0.65767 0.43333 0.99600 -0.04300
C 	C 	0.62380 0.44339 0.98887 -0.06900
N 	N 	0.55406 0.51384 0.89395 -0.12800
C 	C 	0.56975 0.54754 0.95923 -0.05100
C 	C 	0.55236 0.54431 0.91194 0.08600
C 	C 	0.52745 0.56807 0.89158 -0.07300
C 	C 	0.53407 0.60292 0.89852 0.04100
C 	C 	0.56604 0.61590 0.88465 -0.05200
C 	C 	0.57353 0.64806 0.89573 -0.03000
C 	C 	0.54897 0.66762 0.92016 0.01000
C 	C 	0.51645 0.65509 0.93182 -0.02900
C 	C 	0.50921 0.62273 0.92184 -0.05400
C 	C 	0.47782 0.57466 0.82809 -0.06000
C 	C 	0.44511 0.56195 0.82687 -0.06100
C 	C 	0.32059 0.54669 0.86838 -0.02900
C 	C 	0.40865 0.45158 0.96796 -0.08300
C 	C 	0.49587 0.42315 0.91884 0.09900
C 	C 	0.58333 0.51770 0.97040 -0.08600
C 	C 	0.57343 0.49789 0.92943 0.09900
C 	C 	0.63154 0.44157 0.89387 -0.05400
H 	H 	0.47959 0.52358 0.92346 0.09200
H 	H 	0.50706 0.47002 0.94664 0.09200
H 	H 	0.59854 0.65767 0.88598 0.04500
H 	H 	0.49716 0.67021 0.94991 0.04200
H 	H 	0.58527 0.60091 0.86609 0.05000
H 	H 	0.48451 0.61294 0.93294 0.04500
H 	H 	0.34647 0.60695 0.95038 0.04400
H 	H 	0.35319 0.50941 0.83786 0.05200
H 	H 	0.29788 0.53736 0.84918 0.04800
H 	H 	0.40184 0.57897 0.93910 0.04500
H 	H 	0.44087 0.35313 0.08608 0.05200
H 	H 	0.46147 0.40380 0.04562 0.04400
C 	C 	0.43823 0.36391 0.93372 -0.03400
H 	H 	0.41836 0.31570 0.93132 0.05300
H 	H 	0.68124 0.42665 0.86681 0.04800
H 	H 	0.62171 0.44517 0.85429 0.05200
H 	H 	0.60790 0.44825 0.02299 0.06300
H 	H 	0.66784 0.43074 0.03558 0.06300
H 	H 	0.48431 0.59886 0.81570 0.05200
H 	H 	0.42269 0.57495 0.81350 0.05400
H 	H 	0.38044 0.49650 0.97701 0.04600
H 	H 	0.40646 0.44191 0.00755 0.07000
H 	H 	0.57265 0.39524 0.90732 0.05400
H 	H 	0.51093 0.37239 0.91290 0.05100
H 	H 	0.56453 0.56585 0.98850 0.04700
H 	H 	0.59026 0.50947 0.00956 0.06800
H 	H 	0.43720 0.36694 0.89124 0.04600
Co	Co	0.36662 0.14852 0.01341 1.19100
Co	Co	0.37731 0.07677 0.97367 1.09200
O 	O 	0.35740 0.19251 0.04534 -0.36100
O 	O 	0.41053 0.18182 0.04397 -0.30000
O 	O 	0.32162 0.13171 0.99117 -0.42500
O 	O 	0.36598 0.10697 0.91546 -0.44700
C 	C 	0.31049 0.10340 0.00711 0.33600
C 	C 	0.38764 0.20273 0.05692 0.30300
O 	O 	0.33183 0.07917 0.01339 -0.42400
O 	O 	0.38695 0.15479 0.94451 -0.42900
C 	C 	0.38431 0.13296 0.90738 0.29100
O 	O 	0.37270 0.12246 0.07565 -0.40600
O 	O 	0.40887 0.08983 0.03088 -0.46500
C 	C 	0.39643 0.10018 0.07588 0.30200
C 	C 	0.51069 0.04482 0.54304 0.01200
C 	C 	0.53230 0.01774 0.55141 0.01400
C 	C 	0.48603 0.04410 0.50264 -0.05300
C 	C 	0.48162 0.01622 0.47226 0.01400
C 	C 	0.53007 0.99102 0.51750 -0.05300
C 	C 	0.50457 0.98992 0.47836 0.01400
H 	H 	0.54738 0.97086 0.52255 0.05400
H 	H 	0.46975 0.06480 0.49589 0.05400
C 	C 	0.49967 0.96218 0.44711 -0.01300
C 	C 	0.47379 0.96077 0.40865 0.01000
C 	C 	0.48052 0.93785 0.36830 -0.04400
C 	C 	0.51174 0.92185 0.37511 -0.00200
S 	S 	0.53064 0.93682 0.42898 0.00500
H 	H 	0.46552 0.93581 0.33257 0.05200
C 	C 	0.45379 0.01312 0.43710 -0.01300
C 	C 	0.45073 0.98652 0.40359 0.00900
C 	C 	0.43050 0.99293 0.35791 -0.04100
C 	C 	0.41769 0.02446 0.35650 -0.00600
S 	S 	0.43270 0.04367 0.40940 0.00800
H 	H 	0.42832 0.97663 0.32485 0.05100
C 	C 	0.53253 0.06937 0.62431 0.00800
C 	C 	0.51287 0.07122 0.57794 -0.01200
S 	S 	0.48044 0.09618 0.59009 0.00400
C 	C 	0.48953 0.10569 0.65238 -0.00100
C 	C 	0.51944 0.08899 0.66597 -0.04500
C 	C 	0.55488 0.01785 0.59498 -0.01500
C 	C 	0.55419 0.04273 0.63242 0.01100
C 	C 	0.56680 0.03305 0.68287 -0.05000
C 	C 	0.57620 0.00052 0.68521 -0.00200
S 	S 	0.56879 0.98479 0.62582 0.01300
H 	H 	0.56560 0.04801 0.71768 0.04700
H 	H 	0.52822 0.08732 0.70637 0.04900
Co	Co	0.61211 0.85297 0.01734 1.18600
Co	Co	0.53330 0.85854 0.99726 1.09300
O 	O 	0.66379 0.84879 0.02383 -0.35800
O 	O 	0.64772 0.89791 0.02787 -0.30200
O 	O 	0.59453 0.80857 0.01192 -0.39400
O 	O 	0.54269 0.84026 0.06838 -0.44900
C 	C 	0.57325 0.79992 0.97419 0.29700
C 	C 	0.67313 0.87819 0.03018 0.30200
O 	O 	0.55154 0.82082 0.95404 -0.42400
O 	O 	0.59401 0.86392 0.08615 -0.41100
C 	C 	0.56358 0.85438 0.10168 0.29300
O 	O 	0.60708 0.86542 0.94459 -0.43100
O 	O 	0.55994 0.89433 0.96562 -0.46700
C 	C 	0.58507 0.88809 0.93280 0.30200
Co	Co	0.11971 0.64394 0.94387 1.17800
Co	Co	0.04146 0.63315 0.96464 1.09900
O 	O 	0.17139 0.64945 0.93841 -0.37400
O 	O 	0.15679 0.59983 0.93612 -0.31000
O 	O 	0.10024 0.68783 0.94729 -0.40800
O 	O 	0.04911 0.65098 0.89270 -0.44900
C 	C 	0.07571 0.69529 0.98083 0.30200
C 	C 	0.18170 0.62012 0.93561 0.30300
O 	O 	0.05835 0.67253 0.00506 -0.40200
O 	O 	0.10243 0.63130 0.87522 -0.41400
C 	C 	0.07119 0.63830 0.85965 0.29000
O 	O 	0.11499 0.63221 0.01712 -0.41800
O 	O 	0.07073 0.59945 0.99673 -0.47700
C 	C 	0.09537 0.60771 0.02916 0.32000
C 	C 	0.01967 0.50761 0.47657 0.01200
C 	C 	0.99662 0.48131 0.48200 0.01600
C 	C 	0.04604 0.50630 0.43893 -0.05300
C 	C 	0.04920 0.47940 0.40572 0.01400
C 	C 	0.00108 0.45359 0.45103 -0.05400
C 	C 	0.02700 0.45260 0.41245 0.01600
H 	H 	0.98410 0.43320 0.45619 0.05500
H 	H 	0.06353 0.52640 0.43467 0.05400
C 	C 	0.03128 0.42547 0.37964 -0.01600
C 	C 	0.05527 0.42534 0.33830 0.01100
C 	C 	0.04689 0.40298 0.29759 -0.04600
C 	C 	0.01597 0.38668 0.30621 -0.00600
S 	S 	0.99992 0.40014 0.36310 0.02000
H 	H 	0.06041 0.40166 0.26042 0.04800
C 	C 	0.07403 0.47862 0.36521 -0.01500
C 	C 	0.07655 0.45233 0.33058 0.01100
C 	C 	0.09100 0.46084 0.28066 -0.04900
C 	C 	0.09813 0.49379 0.27546 -0.00100
S 	S 	0.08729 0.51116 0.33226 0.01600
H 	H 	0.09253 0.44449 0.24762 0.04900
C 	C 	0.98673 0.53786 0.54262 0.00800
C 	C 	0.01408 0.53568 0.50675 -0.01200
S 	S 	0.04506 0.56010 0.52804 0.00400
C 	C 	0.02471 0.57548 0.58026 -0.00200
C 	C 	0.99268 0.56056 0.58373 -0.04300
C 	C 	0.96814 0.48467 0.51584 -0.01600
C 	C 	0.96318 0.51241 0.54626 0.01200
C 	C 	0.94045 0.50747 0.58946 -0.04700
C 	C 	0.92834 0.47582 0.59275 -0.00600
S 	S 	0.94674 0.45451 0.54459 0.01900
H 	H 	0.93560 0.52519 0.61976 0.04700
H 	H 	0.97655 0.56274 0.61825 0.05100
Co	Co	0.88317 0.36317 0.95840 1.17700
Co	Co	0.88836 0.43719 0.97816 1.09500
O 	O 	0.88095 0.31535 0.94170 -0.37200
O 	O 	0.92975 0.32866 0.97195 -0.30700
O 	O 	0.83698 0.38037 0.94346 -0.40500
O 	O 	0.91860 0.41133 0.02494 -0.45500
C 	C 	0.82299 0.40270 0.97331 0.30000
C 	C 	0.91129 0.30556 0.95351 0.30400
O 	O 	0.84219 0.42049 0.00428 -0.40300
O 	O 	0.88352 0.36834 0.03403 -0.40800
C 	C 	0.90547 0.38852 0.05454 0.30400
O 	O 	0.90683 0.37943 0.89668 -0.42600
O 	O 	0.88153 0.42885 0.90181 -0.43800
C 	C 	0.89947 0.40752 0.87547 0.29100
C 	C 	0.98493 0.93245 0.09870 0.10000
N 	N 	0.96797 0.95884 0.08212 -0.17200
C 	C 	0.93513 0.95502 0.09718 0.10200
C 	C 	0.90660 0.97357 0.07323 -0.07200
C 	C 	0.91029 0.00856 0.06410 0.08600
C 	C 	0.87307 0.95804 0.06395 0.04900
C 	C 	0.87021 0.93258 0.02791 -0.06300
C 	C 	0.83844 0.91798 0.01922 0.00100
C 	C 	0.80932 0.92898 0.04611 0.00100
C 	C 	0.84394 0.96889 0.09100 -0.05500
N 	N 	0.93426 0.02662 0.08822 -0.12600
C 	C 	0.89547 0.02495 0.02240 -0.04300
C 	C 	0.93419 0.05501 0.06224 0.08800
C 	C 	0.96191 0.07902 0.06790 -0.07400
C 	C 	0.95635 0.11243 0.04976 0.05700
C 	C 	0.93639 0.16671 0.06681 -0.03600
C 	C 	0.96331 0.12095 0.99724 -0.06500
C 	C 	0.95584 0.15199 0.97910 -0.05400
C 	C 	0.94194 0.17488 0.01367 0.05100
N 	N 	0.01179 0.04341 0.08410 -0.17200
C 	C 	0.04340 0.04755 0.10427 0.10300
C 	C 	0.04576 0.07717 0.12910 -0.06000
C 	C 	0.01414 0.09168 0.12351 -0.06100
C 	C 	0.07336 0.02885 0.08575 -0.07500
C 	C 	0.10660 0.04497 0.07667 0.05000
C 	C 	0.16773 0.04795 0.09277 -0.01900
C 	C 	0.17097 0.07096 0.05247 -0.00100
C 	C 	0.14171 0.08198 0.02584 0.00200
C 	C 	0.10963 0.06886 0.03767 -0.06400
N 	N 	0.04492 0.97600 0.09954 -0.12700
C 	C 	0.07317 0.94659 0.03888 -0.05500
C 	C 	0.04683 0.94717 0.07541 0.08800
C 	C 	0.01887 0.92321 0.07757 -0.06400
C 	C 	0.02580 0.88950 0.06266 0.01700
C 	C 	0.03794 0.86761 0.10052 -0.03300
C 	C 	0.04628 0.83616 0.08583 -0.04800
C 	C 	0.04361 0.82672 0.03282 0.05200
C 	C 	0.03113 0.84855 0.99506 -0.09400
C 	C 	0.02200 0.87976 0.01003 0.00800
C 	C 	0.96291 0.91156 0.12455 -0.05900
C 	C 	0.93105 0.92602 0.12368 -0.06100
C 	C 	0.81220 0.95440 0.08213 -0.01900
C 	C 	0.91083 0.05478 0.02113 -0.04200
C 	C 	0.99393 0.07020 0.09568 0.10400
C 	C 	0.08846 0.97640 0.04116 -0.06000
C 	C 	0.07069 0.99359 0.07897 0.09200
C 	C 	0.13567 0.03503 0.10487 -0.05700
H 	H 	0.97585 0.97338 0.05063 0.09600
H 	H 	0.00616 0.02816 0.05249 0.09600
H 	H 	0.05519 0.81926 0.11545 0.05400
H 	H 	0.02856 0.84134 0.95417 0.05600
H 	H 	0.04090 0.87497 0.14128 0.04600
H 	H 	0.01260 0.89655 0.98060 0.01900
H 	H 	0.83641 0.89825 0.99151 0.02700
H 	H 	0.84595 0.98846 0.11901 0.05500
H 	H 	0.78984 0.96291 0.10322 0.04900
H 	H 	0.89257 0.92411 0.00677 0.05500
H 	H 	0.96063 0.15820 0.93818 0.04900
H 	H 	0.97387 0.10336 0.97027 0.04500
C 	C 	0.94292 0.13541 0.08451 -0.05000
H 	H 	0.92638 0.18443 0.09407 0.05500
H 	H 	0.19019 0.03955 0.11381 0.04600
H 	H 	0.13350 0.01683 0.13542 0.05300
H 	H 	0.08728 0.07675 0.01583 0.05500
H 	H 	0.14399 0.09997 0.99498 0.02800
H 	H 	0.96708 0.88596 0.12934 0.05200
H 	H 	0.90706 0.91323 0.12806 0.05300
H 	H 	0.88316 0.01364 0.98893 0.03800
H 	H 	0.91221 0.06997 0.98641 0.03800
H 	H 	0.06939 0.09006 0.13625 0.05300
H 	H 	0.00989 0.11739 0.12553 0.05300
H 	H 	0.07434 0.93076 0.00506 0.05500
H 	H 	0.10322 0.98705 0.00940 0.05900
H 	H 	0.93761 0.12902 0.12521 0.05200
C 	C 	0.91911 0.27134 0.96421 -0.08800
C 	C 	0.95313 0.25982 0.96289 0.08100
C 	C 	0.96027 0.22834 0.97940 -0.06700
C 	C 	0.93369 0.20755 0.99442 -0.01100
C 	C 	0.89948 0.21818 0.99136 0.01800
C 	C 	0.89241 0.25009 0.97735 -0.00600
H 	H 	0.98653 0.21988 0.97996 0.05700
H 	H 	0.86611 0.25839 0.97689 0.05600
I 	I 	0.99377 0.28784 0.93090 -0.09400
I 	I 	0.85787 0.18615 0.00456 -0.07700
C 	C 	0.89520 0.44277 0.74129 0.08800
C 	C 	0.92375 0.42866 0.71680 0.09600
N 	N 	0.93317 0.43840 0.66759 -0.11300
C 	C 	0.91505 0.46170 0.64187 0.05500
C 	C 	0.88589 0.47497 0.66583 0.00000
N 	N 	0.87659 0.46530 0.71508 -0.10400
N 	N 	0.88739 0.43499 0.79193 -0.09000
N 	N 	0.94282 0.40666 0.74361 -0.11100
H 	H 	0.87127 0.49353 0.64587 0.04300
C 	C 	0.90678 0.41341 0.81928 -0.03100
C 	C 	0.93482 0.39863 0.79431 0.04100
H 	H 	0.95063 0.38151 0.81550 0.04400
C 	C 	0.96007 0.36735 0.16822 0.09200
C 	C 	0.94617 0.38713 0.20773 0.09700
N 	N 	0.96340 0.39125 0.25381 -0.11400
C 	C 	0.99407 0.37645 0.26206 0.05600
C 	C 	0.00697 0.35534 0.22363 0.00100
N 	N 	0.98980 0.35134 0.17738 -0.10100
N 	N 	0.94527 0.36655 0.11968 -0.08600
N 	N 	0.91723 0.40422 0.19777 -0.11200
H 	H 	0.03123 0.34325 0.22970 0.04500
C 	C 	0.91698 0.38458 0.10911 -0.03000
C 	C 	0.90230 0.40326 0.14927 0.04300
H 	H 	0.87988 0.41784 0.14133 0.02900
C 	C 	0.05231 0.79349 0.01726 -0.00100
C 	C 	0.08657 0.78276 0.01717 0.02600
C 	C 	0.09396 0.75065 0.00490 0.01600
C 	C 	0.06760 0.72932 0.99113 -0.10800
C 	C 	0.03359 0.74067 0.98791 0.07400
C 	C 	0.02608 0.77240 0.00216 -0.05200
H 	H 	0.12023 0.74227 0.00615 0.05400
H 	H 	0.99983 0.78083 0.00079 0.06300
I 	I 	0.12777 0.81482 0.03252 -0.09700
I 	I 	0.99354 0.71173 0.95666 -0.18300
C 	C 	0.03925 0.62118 0.70314 0.09500
C 	C 	0.06859 0.60599 0.72344 0.08800
N 	N 	0.07925 0.61274 0.77328 -0.09000
C 	C 	0.06165 0.63401 0.80384 -0.03400
C 	C 	0.03296 0.64998 0.78270 0.04000
N 	N 	0.02232 0.64316 0.73286 -0.11300
N 	N 	0.02673 0.61226 0.65537 -0.11500
N 	N 	0.08479 0.58316 0.69442 -0.10300
H 	H 	0.01898 0.66740 0.80600 0.04100
C 	C 	0.04231 0.58875 0.62677 0.05400
C 	C 	0.07229 0.57423 0.64648 0.00200
H 	H 	0.08471 0.55506 0.62488 0.04500
C 	C 	0.11118 0.55421 0.16918 0.09900
C 	C 	0.08651 0.54468 0.13201 0.08900
N 	N 	0.08219 0.56205 0.08706 -0.09100
C 	C 	0.10148 0.58873 0.07749 -0.03600
C 	C 	0.12628 0.59821 0.11467 0.05100
N 	N 	0.13064 0.58072 0.15974 -0.10900
N 	N 	0.11494 0.53722 0.21479 -0.11200
N 	N 	0.06655 0.51862 0.14182 -0.10500
H 	H 	0.14185 0.61939 0.10791 0.05000
C 	C 	0.09505 0.51092 0.22462 0.05500
C 	C 	0.07018 0.50163 0.18740 0.00200
H 	H 	0.05335 0.48146 0.19523 0.04200
C 	C 	0.70910 0.88862 0.03084 -0.07000
C 	C 	0.73218 0.87628 0.06866 0.08400
C 	C 	0.76548 0.88858 0.07149 -0.07800
C 	C 	0.77589 0.91345 0.03760 0.03300
C 	C 	0.75316 0.92519 0.99892 0.01000
C 	C 	0.71995 0.91271 0.99569 -0.02100
H 	H 	0.78295 0.87954 0.10130 0.06500
H 	H 	0.70238 0.92208 0.96628 0.05600
I 	I 	0.71676 0.84118 0.12510 -0.08600
I 	I 	0.76807 0.96222 0.94566 -0.11000
C 	C 	0.59522 0.94229 0.79234 0.09800
C 	C 	0.56624 0.94565 0.82471 0.08500
N 	N 	0.56359 0.92804 0.86972 -0.09800
C 	C 	0.58873 0.90702 0.88389 -0.03600
C 	C 	0.61774 0.90362 0.85139 0.04800
N 	N 	0.62039 0.92135 0.80628 -0.11100
N 	N 	0.59796 0.96010 0.74744 -0.11200
N 	N 	0.54102 0.96648 0.81079 -0.11000
H 	H 	0.63807 0.88712 0.86202 0.04600
C 	C 	0.57289 0.98133 0.73378 0.05400
C 	C 	0.54368 0.98431 0.76591 -0.00100
H 	H 	0.52317 0.00056 0.75500 0.03800
C 	C 	0.55887 0.88789 0.23683 0.08900
C 	C 	0.52878 0.87349 0.25599 0.09600
N 	N 	0.51518 0.88345 0.30246 -0.11400
C 	C 	0.53042 0.90725 0.33085 0.05400
C 	C 	0.56120 0.92087 0.31250 0.00300
N 	N 	0.57477 0.91092 0.26582 -0.10100
N 	N 	0.57048 0.88036 0.18784 -0.08700
N 	N 	0.51214 0.85136 0.22615 -0.11300
H 	H 	0.57342 0.94020 0.33401 0.04600
C 	C 	0.55313 0.85906 0.15699 -0.03500
C 	C 	0.52376 0.84373 0.17715 0.04000
H 	H 	0.50996 0.82629 0.15366 0.03600
C 	C 	0.27368 0.09812 0.01494 -0.08500
C 	C 	0.25591 0.11387 0.05585 0.09000
C 	C 	0.22168 0.10599 0.06601 -0.08100
C 	C 	0.20519 0.08212 0.03637 0.03600
C 	C 	0.22271 0.06695 0.99469 0.00600
C 	C 	0.25675 0.07515 0.98404 -0.01500
H 	H 	0.20825 0.11764 0.09816 0.06600
H 	H 	0.27033 0.06308 0.95245 0.03900
I 	I 	0.28071 0.14775 0.10562 -0.09200
I 	I 	0.19895 0.03048 0.94877 -0.12700
C 	C 	0.44449 0.13718 0.76981 0.09400
C 	C 	0.41646 0.11606 0.77320 0.08300
N 	N 	0.39611 0.11647 0.81659 -0.09800
C 	C 	0.40253 0.13713 0.85700 -0.04300
C 	C 	0.42966 0.15928 0.85246 0.04200
N 	N 	0.45017 0.15873 0.80905 -0.11300
N 	N 	0.46701 0.13442 0.72918 -0.11400
N 	N 	0.41146 0.09372 0.73503 -0.10800
H 	H 	0.43516 0.17598 0.88409 0.04200
C 	C 	0.46243 0.11157 0.69141 0.05200
C 	C 	0.43384 0.09102 0.69422 0.00000
H 	H 	0.43021 0.07220 0.66528 0.04100
C 	C 	0.42099 0.05138 0.21714 0.09600
C 	C 	0.39525 0.07500 0.21623 0.09000
N 	N 	0.38834 0.09101 0.17067 -0.08400
C 	C 	0.40616 0.08441 0.12576 -0.03500
C 	C 	0.43237 0.06117 0.12704 0.04100
N 	N 	0.43918 0.04509 0.17269 -0.11400
N 	N 	0.42749 0.03497 0.26244 -0.11500
N 	N 	0.37714 0.08136 0.26076 -0.10100
H 	H 	0.44702 0.05575 0.09188 0.03300
C 	C 	0.40939 0.04134 0.30716 0.05500
C 	C 	0.38377 0.06506 0.30627 0.00300
H 	H 	0.36924 0.07045 0.34157 0.04500
C 	C 	0.41528 0.30090 0.03537 0.00300
C 	C 	0.38075 0.29165 0.03028 0.03000
C 	C 	0.37112 0.25995 0.04156 -0.00700
C 	C 	0.39557 0.23753 0.05920 -0.08300
C 	C 	0.42874 0.24837 0.07239 0.08400
C 	C 	0.43874 0.27969 0.05882 -0.06800
H 	H 	0.34490 0.25251 0.03485 0.06500
H 	H 	0.46486 0.28736 0.06579 0.06400
I 	I 	0.34255 0.32522 0.00696 -0.08800
I 	I 	0.46286 0.21959 0.11780 -0.07900
C 	C 	0.28472 0.58832 0.91223 0.00800
C 	C 	0.27042 0.61177 0.87855 0.02600
C 	C 	0.23710 0.62294 0.88769 -0.00600
C 	C 	0.21783 0.61076 0.93001 -0.08800
C 	C 	0.23275 0.58837 0.96505 0.07200
C 	C 	0.26600 0.57719 0.95583 -0.07100
H 	H 	0.22590 0.64050 0.86110 0.05400
H 	H 	0.27720 0.55956 0.98232 0.05800
I 	I 	0.29839 0.63044 0.81339 -0.10600
I 	I 	0.20645 0.57221 0.03369 -0.06900
C 	C 	0.71544 0.42106 0.95928 0.00900
C 	C 	0.72728 0.39010 0.97292 0.02400
C 	C 	0.76250 0.38446 0.97802 -0.00300
C 	C 	0.78608 0.40936 0.96899 -0.09400
C 	C 	0.77418 0.44020 0.95432 0.09000
C 	C 	0.73899 0.44594 0.95042 -0.07700
H 	H 	0.77154 0.36066 0.98871 0.05000
H 	H 	0.72993 0.46967 0.93928 0.06300
I 	I 	0.69272 0.35120 0.98429 -0.10900
I 	I 	0.80844 0.47786 0.93312 -0.17500
C 	C 	0.55744 0.70112 0.93404 0.01000
C 	C 	0.56246 0.71010 0.98709 0.01700
C 	C 	0.56844 0.74237 0.99967 -0.02800
C 	C 	0.57046 0.76574 0.95968 -0.08900
C 	C 	0.56797 0.75633 0.90634 0.08100
C 	C 	0.56078 0.72423 0.89390 -0.07600
H 	H 	0.57109 0.74935 0.04067 0.07100
H 	H 	0.55809 0.71718 0.85294 0.06200
I 	I 	0.56267 0.67530 0.04880 -0.08600
I 	I 	0.57814 0.78921 0.84374 -0.10500
