data_crystal

_cell_length_a 25.74475
_cell_length_b 26.05676
_cell_length_c 34.78902
_cell_angle_alpha 95.52870
_cell_angle_beta  95.53161
_cell_angle_gamma 125.71072

_symmetry_space_group_name_	'P 1'
_symmetry_space_group_name_H-M	'P 1'

loop_
_symmetry_equiv_pos_as_xyz
  x,y,z

loop_
_atom_site_label
_atom_site_type_symbol
_atom_site_fract_x
_atom_site_fract_y
_atom_site_fract_z
_atom_site_charge
C 	C 	0.94167 0.01748 0.99338 0.04300
C 	C 	0.90307 0.95118 0.99366 -0.07500
C 	C 	0.93128 0.91867 0.99460 0.04100
C 	C 	0.99807 0.95227 0.99483 -0.07100
C 	C 	0.03676 0.01823 0.99330 0.03900
C 	C 	0.00833 0.05070 0.99273 -0.07500
H 	H 	0.85100 0.92468 0.99215 0.05700
H 	H 	0.01981 0.92714 0.99651 0.05200
H 	H 	0.03787 0.10157 0.99160 0.05700
C 	C 	0.96819 0.02459 0.47270 0.04500
C 	C 	0.93293 0.96019 0.47762 -0.07800
C 	C 	0.96122 0.92772 0.47553 0.04500
C 	C 	0.02526 0.96005 0.46882 -0.08100
C 	C 	0.06134 0.02477 0.46499 0.04400
C 	C 	0.03240 0.05661 0.46617 -0.07900
H 	H 	0.88378 0.93552 0.48327 0.05800
H 	H 	0.04674 0.93472 0.46605 0.05500
H 	H 	0.05987 0.10615 0.46220 0.05600
Cu	Cu	0.61530 0.23091 0.00052 0.93000
Cu	Cu	0.66203 0.23244 0.91598 0.87300
Cu	Cu	0.64662 0.33072 0.94931 0.90000
Cu	Cu	0.62134 0.35286 0.02863 0.89700
C 	C 	0.64134 0.28164 0.08286 0.31000
O 	O 	0.52166 0.19580 0.00227 -0.35600
C 	C 	0.62994 0.29189 0.86383 0.30700
O 	O 	0.66932 0.33104 0.00346 -0.64000
O 	O 	0.60301 0.23640 0.94445 -0.63900
O 	O 	0.65290 0.18238 0.99638 -0.35900
O 	O 	0.72337 0.24791 0.95910 -0.42900
O 	O 	0.61185 0.30784 0.07367 -0.38200
O 	O 	0.69555 0.42318 0.95643 -0.36800
C 	C 	0.69285 0.46030 0.98357 0.29800
C 	C 	0.49643 0.22372 0.98871 0.28400
O 	O 	0.53476 0.28387 0.98433 -0.38800
O 	O 	0.66021 0.43795 0.01241 -0.38800
O 	O 	0.64079 0.24171 0.05606 -0.34200
C 	C 	0.70606 0.20524 0.98181 0.29400
O 	O 	0.62991 0.32900 0.89262 -0.36100
O 	O 	0.62230 0.23865 0.86921 -0.41200
H 	H 	0.71670 0.35855 0.01416 0.17900
H 	H 	0.55734 0.20927 0.93008 0.17800
Cu	Cu	0.76488 0.36309 0.45572 0.93000
Cu	Cu	0.75808 0.30455 0.53572 0.87700
Cu	Cu	0.65363 0.31175 0.50135 0.89800
Cu	Cu	0.63652 0.34690 0.42397 0.89800
C 	C 	0.72291 0.34660 0.37289 0.30900
O 	O 	0.79289 0.45409 0.45847 -0.34800
C 	C 	0.68509 0.31859 0.58670 0.30800
O 	O 	0.66268 0.30126 0.44760 -0.64000
O 	O 	0.75065 0.36377 0.51055 -0.64000
O 	O 	0.82104 0.33388 0.46020 -0.36200
O 	O 	0.75233 0.25278 0.49071 -0.42900
O 	O 	0.68971 0.36862 0.38183 -0.36600
O 	O 	0.55940 0.25564 0.48954 -0.37200
C 	C 	0.52321 0.25087 0.45775 0.29100
C 	C 	0.75847 0.47186 0.47179 0.28400
O 	O 	0.69659 0.42846 0.47237 -0.38400
O 	O 	0.54702 0.29642 0.43634 -0.38500
O 	O 	0.76272 0.34743 0.40036 -0.35100
C 	C 	0.79854 0.27793 0.46985 0.28900
O 	O 	0.64653 0.31616 0.55729 -0.37200
O 	O 	0.74241 0.33300 0.58284 -0.39800
H 	H 	0.63982 0.25605 0.43434 0.16800
H 	H 	0.77316 0.40679 0.52722 0.17900
C 	C 	0.66814 0.31477 0.62609 -0.09900
C 	C 	0.66966 0.27305 0.64832 0.14700
C 	C 	0.65806 0.27329 0.68675 -0.08400
C 	C 	0.64311 0.31350 0.70303 0.02300
C 	C 	0.63919 0.35350 0.68038 0.08300
C 	C 	0.65188 0.35411 0.64210 -0.01000
H 	H 	0.66037 0.24191 0.70396 0.08200
C 	C 	0.63396 0.31488 0.74428 0.02300
H 	H 	0.64993 0.38578 0.62500 0.06400
C 	C 	0.68603 0.36353 0.77396 -0.08400
C 	C 	0.68319 0.35886 0.81355 0.14300
C 	C 	0.62808 0.30463 0.82365 -0.10000
C 	C 	0.57421 0.25830 0.79412 -0.01100
C 	C 	0.57675 0.26345 0.75456 0.08200
H 	H 	0.72975 0.40376 0.76619 0.08300
H 	H 	0.53106 0.21728 0.80182 0.06100
Br	Br	0.61593 0.40700 0.70108 -0.21400
Br	Br	0.68414 0.21298 0.62607 -0.26900
Br	Br	0.75665 0.42512 0.85324 -0.25000
Br	Br	0.50215 0.19925 0.71490 -0.21600
C 	C 	0.65772 0.28205 0.12470 -0.09500
C 	C 	0.72007 0.30122 0.14126 0.14400
C 	C 	0.73667 0.30768 0.18191 -0.08400
C 	C 	0.69174 0.29559 0.20624 0.02300
C 	C 	0.62887 0.27466 0.18950 0.08500
C 	C 	0.61201 0.26740 0.14891 -0.01200
H 	H 	0.78509 0.32381 0.19471 0.08300
C 	C 	0.71262 0.31083 0.24939 0.02100
H 	H 	0.56369 0.25172 0.13626 0.06700
C 	C 	0.74401 0.37400 0.26941 -0.08500
C 	C 	0.75221 0.38718 0.31037 0.15000
C 	C 	0.72813 0.33662 0.33156 -0.09400
C 	C 	0.70220 0.27457 0.31190 -0.01500
C 	C 	0.69469 0.26154 0.27093 0.08800
H 	H 	0.75987 0.41248 0.25301 0.08000
H 	H 	0.68545 0.23591 0.32825 0.05700
Br	Br	0.56616 0.25823 0.22183 -0.22000
Br	Br	0.78436 0.32221 0.10931 -0.24000
Br	Br	0.79686 0.47454 0.33691 -0.22400
Br	Br	0.65773 0.17584 0.24473 -0.21300
C 	C 	0.85864 0.74120 0.45031 0.00500
C 	C 	0.80603 0.67570 0.44180 -0.05200
C 	C 	0.81630 0.63279 0.45546 0.02200
C 	C 	0.87604 0.65584 0.47861 0.00700
C 	C 	0.92391 0.72172 0.49278 -0.05800
C 	C 	0.91524 0.76448 0.47724 0.03000
S 	S 	0.85364 0.80155 0.44766 -0.00000
C 	C 	0.92299 0.85926 0.47911 -0.00600
C 	C 	0.95169 0.83082 0.49341 -0.05800
S 	S 	0.86553 0.59710 0.50013 0.03000
C 	C 	0.78655 0.54028 0.48048 -0.07100
C 	C 	0.76595 0.56771 0.45623 -0.01500
H 	H 	0.75866 0.65911 0.42645 0.05200
H 	H 	0.96495 0.73889 0.51580 0.05200
H 	H 	0.99763 0.85724 0.51390 0.04900
H 	H 	0.71777 0.54083 0.43822 0.04300
C 	C 	0.87011 0.09409 0.45131 0.00500
C 	C 	0.81914 0.09978 0.44985 -0.05300
C 	C 	0.83492 0.16033 0.46431 0.01700
C 	C 	0.89897 0.21181 0.48207 0.00300
C 	C 	0.94989 0.20618 0.48377 -0.05700
C 	C 	0.93409 0.14549 0.46980 0.02900
S 	S 	0.86177 0.02589 0.45178 -0.00100
C 	C 	0.93777 0.05833 0.47455 -0.00600
C 	C 	0.97259 0.12557 0.48242 -0.05500
S 	S 	0.90673 0.27971 0.48223 0.02000
C 	C 	0.82986 0.24710 0.46124 -0.07300
C 	C 	0.79548 0.17992 0.45330 -0.01800
H 	H 	0.76951 0.05924 0.43687 0.05200
H 	H 	0.99942 0.24669 0.49697 0.05100
H 	H 	0.02214 0.15835 0.49869 0.04700
H 	H 	0.74408 0.14663 0.44055 0.04500
C 	C 	0.24226 0.13712 0.44778 0.00500
C 	C 	0.29230 0.16452 0.42606 -0.05400
C 	C 	0.34283 0.15892 0.43530 0.01900
C 	C 	0.34009 0.12252 0.46344 0.00000
C 	C 	0.29027 0.09545 0.48530 -0.05500
C 	C 	0.23979 0.10101 0.47608 0.02900
S 	S 	0.16706 0.11382 0.43211 -0.00300
C 	C 	0.13012 0.05960 0.46103 -0.00500
C 	C 	0.17653 0.05786 0.48407 -0.05700
S 	S 	0.41513 0.14610 0.47925 0.04200
C 	C 	0.45269 0.19956 0.44999 -0.07500
C 	C 	0.40637 0.20243 0.42761 -0.01800
H 	H 	0.29299 0.19097 0.40368 0.05100
H 	H 	0.28968 0.06913 0.50775 0.05400
H 	H 	0.16473 0.02437 0.50383 0.04900
H 	H 	0.41919 0.24010 0.41101 0.04800
C 	C 	0.78911 0.73803 0.99265 0.00700
C 	C 	0.75055 0.68100 0.00699 -0.05700
C 	C 	0.73672 0.62455 0.98572 0.02100
C 	C 	0.76329 0.62638 0.95192 -0.00300
C 	C 	0.80950 0.68495 0.94120 -0.05300
C 	C 	0.82123 0.74099 0.96148 0.02800
S 	S 	0.83178 0.81137 0.02011 -0.00600
C 	C 	0.89069 0.84889 0.99382 -0.00300
C 	C 	0.87781 0.80372 0.96176 -0.05800
S 	S 	0.76113 0.56112 0.94362 0.05900
C 	C 	0.72636 0.52849 0.98134 -0.07500
C 	C 	0.71481 0.56877 0.00189 -0.01900
H 	H 	0.73551 0.68133 0.03499 0.05100
H 	H 	0.83834 0.68739 0.91973 0.05400
H 	H 	0.90847 0.81529 0.93992 0.05000
H 	H 	0.69361 0.55949 0.02811 0.04700
C 	C 	0.75562 0.09065 0.99124 -0.00200
C 	C 	0.77662 0.05757 0.00814 -0.05600
C 	C 	0.82119 0.05293 0.99094 0.03000
C 	C 	0.84608 0.08366 0.95930 0.00400
C 	C 	0.83347 0.12562 0.94710 -0.05400
C 	C 	0.78622 0.12740 0.96277 0.01700
S 	S 	0.72162 0.12030 0.01350 0.04900
C 	C 	0.74289 0.17895 0.98783 -0.07500
C 	C 	0.77861 0.17670 0.96054 -0.02500
S 	S 	0.91282 0.08896 0.95537 -0.00200
C 	C 	0.91202 0.05179 0.99228 -0.00300
C 	C 	0.85776 0.03430 0.00930 -0.06000
H 	H 	0.76127 0.03879 0.03460 0.05300
H 	H 	0.86135 0.15771 0.92766 0.05000
H 	H 	0.79748 0.20860 0.93957 0.03800
H 	H 	0.84523 0.00922 0.03382 0.05100
C 	C 	0.22707 0.12076 0.02066 0.00400
C 	C 	0.29263 0.17390 0.02615 -0.05300
C 	C 	0.33623 0.16356 0.01304 0.01700
C 	C 	0.31366 0.10246 0.99355 0.00600
C 	C 	0.24693 0.05274 0.98205 -0.05900
C 	C 	0.20361 0.06204 0.99682 0.03000
S 	S 	0.16519 0.12507 0.02119 -0.00400
C 	C 	0.10706 0.05353 0.99242 -0.00300
C 	C 	0.13601 0.02385 0.98118 -0.05800
S 	S 	0.37105 0.11124 0.97029 0.02700
C 	C 	0.42617 0.19117 0.98423 -0.07300
C 	C 	0.39972 0.21346 0.00813 -0.01800
H 	H 	0.30850 0.22180 0.03835 0.05000
H 	H 	0.22931 0.00985 0.96108 0.05100
H 	H 	0.11003 0.97791 0.96136 0.04700
H 	H 	0.42600 0.26321 0.02247 0.03900
