data_crystal

_cell_length_a 26.09898
_cell_length_b 26.37438
_cell_length_c 34.82450
_cell_angle_alpha 95.50135
_cell_angle_beta  95.49827
_cell_angle_gamma 125.82562

_symmetry_space_group_name_	'P 1'
_symmetry_space_group_name_H-M	'P 1'

loop_
_symmetry_equiv_pos_as_xyz
  x,y,z

loop_
_atom_site_label
_atom_site_type_symbol
_atom_site_fract_x
_atom_site_fract_y
_atom_site_fract_z
_atom_site_charge
C 	C 	0.96923 0.02509 0.99488 0.11500
N 	N 	0.03453 0.06076 0.00053 -0.13900
C 	C 	0.06388 0.03192 0.00152 0.11300
N 	N 	0.02793 0.96758 0.99659 -0.12600
C 	C 	0.96285 0.93182 0.99076 0.11300
N 	N 	0.93355 0.96063 0.98999 -0.13500
C 	C 	0.94056 0.00919 0.46429 0.11000
N 	N 	0.00033 0.04327 0.45540 -0.13500
C 	C 	0.03140 0.01671 0.45120 0.11700
N 	N 	0.00222 0.95547 0.45548 -0.13300
C 	C 	0.94240 0.92086 0.46435 0.11300
N 	N 	0.91136 0.94775 0.46873 -0.13500
Cu	Cu	0.64499 0.24202 0.00210 0.92400
Cu	Cu	0.67652 0.23599 0.91388 0.86800
Cu	Cu	0.66308 0.33187 0.94681 0.89800
Cu	Cu	0.66181 0.36887 0.03095 0.89400
C 	C 	0.67083 0.29021 0.08437 0.29500
O 	O 	0.55527 0.20807 0.01098 -0.36600
C 	C 	0.62693 0.28260 0.86188 0.28600
O 	O 	0.69817 0.34002 0.99991 -0.62800
O 	O 	0.62170 0.23993 0.94602 -0.64000
O 	O 	0.68202 0.19441 0.99592 -0.36200
O 	O 	0.74320 0.25547 0.95408 -0.43500
O 	O 	0.67916 0.34383 0.08022 -0.37800
O 	O 	0.71057 0.42241 0.94866 -0.37900
C 	C 	0.71550 0.46303 0.97690 0.30600
C 	C 	0.53097 0.23879 0.00412 0.28300
O 	O 	0.56728 0.29589 0.99588 -0.38300
O 	O 	0.68648 0.44439 0.00724 -0.40100
O 	O 	0.67875 0.25883 0.05667 -0.36200
C 	C 	0.73119 0.21584 0.97804 0.29000
O 	O 	0.62851 0.31932 0.89144 -0.37100
O 	O 	0.62977 0.23544 0.86766 -0.40900
H 	H 	0.74572 0.36607 0.00602 0.16100
H 	H 	0.57520 0.21174 0.93443 0.18200
Cu	Cu	0.73412 0.34235 0.45574 0.92400
Cu	Cu	0.73712 0.30323 0.54250 0.88200
Cu	Cu	0.62849 0.31592 0.50070 0.91100
Cu	Cu	0.62211 0.35044 0.42256 0.89700
C 	C 	0.69631 0.32903 0.37245 0.29200
O 	O 	0.77856 0.43742 0.45722 -0.35400
C 	C 	0.63970 0.29631 0.57786 0.29400
O 	O 	0.63418 0.29700 0.44741 -0.64000
O 	O 	0.72155 0.35171 0.51071 -0.63000
O 	O 	0.76732 0.28969 0.45791 -0.36300
O 	O 	0.81037 0.32313 0.52321 -0.41500
O 	O 	0.67272 0.36059 0.38070 -0.37900
O 	O 	0.53717 0.27477 0.49014 -0.37200
C 	C 	0.50517 0.27448 0.45824 0.29000
C 	C 	0.75140 0.46433 0.46840 0.28000
O 	O 	0.69006 0.42861 0.47045 -0.39400
O 	O 	0.53510 0.31534 0.43468 -0.39000
O 	O 	0.72961 0.32317 0.40032 -0.35300
C 	C 	0.80292 0.29245 0.48880 0.28600
O 	O 	0.62693 0.32685 0.55609 -0.37200
O 	O 	0.65739 0.26277 0.56218 -0.42000
H 	H 	0.60448 0.25124 0.43523 0.16600
H 	H 	0.74855 0.39675 0.52427 0.16400
C 	C 	0.67062 0.30473 0.68803 -0.04100
C 	C 	0.61549 0.29601 0.69862 0.02200
C 	C 	0.56878 0.28874 0.66970 -0.04100
C 	C 	0.57517 0.28608 0.62992 0.02500
C 	C 	0.63160 0.29721 0.61950 -0.08700
C 	C 	0.68023 0.30860 0.64898 0.02200
C 	C 	0.60667 0.29418 0.74038 0.02000
C 	C 	0.51431 0.28416 0.68092 0.09900
C 	C 	0.74105 0.32656 0.63944 0.04900
C 	C 	0.64421 0.35084 0.76879 -0.03800
C 	C 	0.64887 0.34789 0.80910 0.01700
C 	C 	0.61197 0.28822 0.82096 -0.07600
C 	C 	0.56601 0.23288 0.79250 0.02000
C 	C 	0.56566 0.23527 0.75223 -0.03900
C 	C 	0.67922 0.41198 0.75646 0.09700
C 	C 	0.51809 0.17414 0.80467 0.08400
C 	C 	0.69334 0.40581 0.83808 0.08000
C 	C 	0.52468 0.17707 0.72307 0.09600
C 	C 	0.71728 0.30933 0.71734 0.09500
C 	C 	0.52265 0.26922 0.59969 0.08700
N 	N 	0.72888 0.45212 0.86113 -0.10700
N 	N 	0.70716 0.46073 0.74656 -0.11300
N 	N 	0.47984 0.12727 0.81438 -0.11300
N 	N 	0.49198 0.13065 0.69977 -0.11400
N 	N 	0.47086 0.28050 0.68992 -0.11200
N 	N 	0.48071 0.25573 0.57559 -0.10400
N 	N 	0.78959 0.34092 0.63187 -0.14000
N 	N 	0.75445 0.31300 0.74077 -0.11900
C 	C 	0.72800 0.28055 0.18582 -0.03900
C 	C 	0.68108 0.27560 0.20570 0.02100
C 	C 	0.62521 0.26345 0.18418 -0.03900
C 	C 	0.61925 0.26243 0.14341 0.01900
C 	C 	0.66990 0.27530 0.12433 -0.07500
C 	C 	0.72298 0.28132 0.14520 0.02100
C 	C 	0.69349 0.28972 0.24955 0.02100
C 	C 	0.57472 0.25370 0.20420 0.09500
C 	C 	0.77320 0.29017 0.12522 0.08700
C 	C 	0.72954 0.35331 0.26969 -0.04000
C 	C 	0.73428 0.36641 0.31058 0.02200
C 	C 	0.70092 0.31586 0.33116 -0.07500
C 	C 	0.66883 0.25253 0.31155 0.01700
C 	C 	0.66571 0.23954 0.27078 -0.03800
C 	C 	0.76069 0.40511 0.24814 0.09700
C 	C 	0.63797 0.20077 0.33314 0.07500
C 	C 	0.77408 0.43182 0.33160 0.08700
C 	C 	0.63326 0.17463 0.25054 0.09700
C 	C 	0.78204 0.28626 0.20736 0.09700
C 	C 	0.56118 0.24851 0.12110 0.07400
N 	N 	0.80582 0.48398 0.34837 -0.11100
N 	N 	0.78551 0.44637 0.23089 -0.11400
N 	N 	0.61336 0.15950 0.35039 -0.11600
N 	N 	0.60735 0.12283 0.23435 -0.11300
N 	N 	0.53447 0.24592 0.22024 -0.11600
N 	N 	0.51479 0.23738 0.10338 -0.11400
N 	N 	0.81324 0.29720 0.10927 -0.11100
N 	N 	0.82516 0.29082 0.22459 -0.11300
C 	C 	0.92799 0.77943 0.49351 -0.04000
C 	C 	0.86416 0.72943 0.47612 0.00600
C 	C 	0.82425 0.74294 0.45768 -0.04200
C 	C 	0.84880 0.80592 0.45544 -0.02200
C 	C 	0.91344 0.85581 0.47164 -0.01400
C 	C 	0.95246 0.84228 0.49144 -0.02900
C 	C 	0.83940 0.66287 0.47666 0.02500
H 	H 	0.77468 0.70461 0.44442 0.04400
H 	H 	0.81821 0.81563 0.44005 0.04300
H 	H 	0.00214 0.88042 0.50458 0.05100
H 	H 	0.95886 0.76953 0.50826 0.04400
C 	C 	0.86057 0.63441 0.45353 -0.06100
C 	C 	0.83485 0.57038 0.45265 0.01400
C 	C 	0.78762 0.53426 0.47487 -0.08400
C 	C 	0.76891 0.56385 0.49945 0.01200
C 	C 	0.79443 0.62769 0.50017 -0.06300
H 	H 	0.89589 0.66148 0.43561 0.05200
H 	H 	0.84992 0.54838 0.43365 0.04700
H 	H 	0.73332 0.53689 0.51725 0.03500
H 	H 	0.77866 0.64958 0.51864 0.05000
C 	C 	0.84765 0.18741 0.44844 -0.06400
C 	C 	0.85004 0.16115 0.48120 0.02700
C 	C 	0.83791 0.17886 0.51651 -0.06500
C 	C 	0.82408 0.22275 0.51922 0.01300
C 	C 	0.82164 0.24915 0.48648 -0.09100
C 	C 	0.83335 0.23108 0.45103 0.01800
C 	C 	0.86937 0.11835 0.47936 0.00600
H 	H 	0.83944 0.15876 0.54193 0.04800
H 	H 	0.81420 0.23539 0.54660 0.01900
H 	H 	0.83166 0.25100 0.42555 0.04300
H 	H 	0.85759 0.17458 0.42114 0.05100
C 	C 	0.83343 0.06082 0.45199 -0.04100
C 	C 	0.85414 0.02234 0.44890 -0.02700
C 	C 	0.91093 0.04121 0.47307 -0.01500
C 	C 	0.94508 0.09721 0.50159 -0.02200
C 	C 	0.92455 0.13564 0.50465 -0.04300
H 	H 	0.79021 0.04651 0.43272 0.04300
H 	H 	0.82748 0.97929 0.42672 0.04600
H 	H 	0.98892 0.11214 0.52045 0.04100
H 	H 	0.95244 0.17969 0.52602 0.04400
C 	C 	0.33413 0.21887 0.42866 -0.06300
C 	C 	0.30012 0.16331 0.44452 0.02700
C 	C 	0.33328 0.14342 0.46389 -0.06200
C 	C 	0.40005 0.17929 0.46792 0.01800
C 	C 	0.43441 0.23560 0.45271 -0.08200
C 	C 	0.40098 0.25490 0.43271 0.01600
C 	C 	0.23034 0.12774 0.44268 0.00700
H 	H 	0.30737 0.10064 0.47632 0.05200
H 	H 	0.42509 0.16343 0.48299 0.03900
H 	H 	0.42677 0.29827 0.42090 0.03800
H 	H 	0.30884 0.23448 0.41359 0.05000
C 	C 	0.20643 0.15603 0.46282 -0.04200
C 	C 	0.14105 0.12041 0.46446 -0.02000
C 	C 	0.09893 0.05605 0.44598 -0.01600
C 	C 	0.12255 0.02848 0.42458 -0.02600
C 	C 	0.18799 0.06419 0.42297 -0.04100
H 	H 	0.23882 0.20510 0.47812 0.04600
H 	H 	0.12355 0.14227 0.48115 0.04500
H 	H 	0.09040 0.97921 0.40965 0.04900
H 	H 	0.20599 0.04219 0.40700 0.04300
C 	C 	0.83640 0.62620 0.95527 -0.06600
C 	C 	0.81339 0.65924 0.97002 0.03400
C 	C 	0.75545 0.62644 0.98405 -0.06600
C 	C 	0.72222 0.56175 0.98496 0.02200
C 	C 	0.74672 0.52925 0.97191 -0.08700
C 	C 	0.80313 0.56140 0.95615 0.02200
C 	C 	0.85261 0.72892 0.97402 -0.00500
H 	H 	0.73717 0.65152 0.99530 0.05200
H 	H 	0.67798 0.53712 0.99640 0.03800
H 	H 	0.82227 0.53673 0.94575 0.03600
H 	H 	0.88085 0.65110 0.94406 0.05300
C 	C 	0.91214 0.76762 0.99987 -0.01200
C 	C 	0.94778 0.83378 0.00559 -0.05100
C 	C 	0.92427 0.86196 0.98543 0.00100
C 	C 	0.86471 0.82316 0.95943 -0.02900
C 	C 	0.82903 0.75690 0.95377 -0.03300
H 	H 	0.93033 0.74637 0.01595 0.03000
H 	H 	0.99338 0.86314 0.02597 0.04700
H 	H 	0.84635 0.84429 0.94336 0.04600
H 	H 	0.78303 0.72730 0.93378 0.04400
C 	C 	0.84691 0.05476 0.96610 -0.04000
C 	C 	0.87296 0.11220 0.99159 0.01100
C 	C 	0.93111 0.14148 0.01797 -0.04600
C 	C 	0.96309 0.11355 0.01876 -0.03900
C 	C 	0.93696 0.05595 0.99324 -0.00500
C 	C 	0.87871 0.02677 0.96689 -0.02900
C 	C 	0.84045 0.14273 0.98954 0.03400
H 	H 	0.95167 0.18598 0.03768 0.04300
H 	H 	0.00768 0.13626 0.03948 0.05100
H 	H 	0.85825 0.98258 0.94687 0.04700
H 	H 	0.80211 0.03193 0.94556 0.04200
C 	C 	0.83738 0.16722 0.95613 -0.06600
C 	C 	0.80250 0.19182 0.95266 0.01300
C 	C 	0.77020 0.19219 0.98263 -0.08200
C 	C 	0.77449 0.16894 0.01652 0.01100
C 	C 	0.80952 0.14432 0.01995 -0.07100
H 	H 	0.86130 0.16633 0.93258 0.04800
H 	H 	0.79960 0.20950 0.92633 0.02100
H 	H 	0.75065 0.16977 0.04013 0.04700
H 	H 	0.81179 0.12563 0.04591 0.05200
C 	C 	0.23326 0.14420 0.98433 -0.03600
C 	C 	0.26550 0.12771 0.00858 0.00100
C 	C 	0.23251 0.08401 0.03309 -0.04400
C 	C 	0.16724 0.05517 0.03227 -0.01900
C 	C 	0.13435 0.06985 0.00698 -0.02600
C 	C 	0.16798 0.11553 0.98365 -0.01100
C 	C 	0.33362 0.15584 0.00807 0.02100
H 	H 	0.25726 0.07183 0.05241 0.04500
H 	H 	0.14187 0.02042 0.05070 0.04100
H 	H 	0.14306 0.12709 0.96393 0.04400
H 	H 	0.25845 0.17820 0.96546 0.04600
C 	C 	0.35182 0.11663 0.99714 -0.05500
C 	C 	0.41636 0.14348 0.99626 0.02700
C 	C 	0.46313 0.20977 0.00607 -0.09200
C 	C 	0.44483 0.24879 0.01734 0.02000
C 	C 	0.38048 0.22195 0.01840 -0.06300
H 	H 	0.31590 0.06549 0.98904 0.05100
H 	H 	0.42976 0.11286 0.98740 0.03700
H 	H 	0.48060 0.29994 0.02557 0.02900
H 	H 	0.36701 0.25251 0.02729 0.04900
