data_crystal

_cell_length_a 27.74880
_cell_length_b 28.17254
_cell_length_c 26.56703
_cell_angle_alpha 95.50611
_cell_angle_beta  95.50719
_cell_angle_gamma 125.66751

_symmetry_space_group_name_	'P 1'
_symmetry_space_group_name_H-M	'P 1'

loop_
_symmetry_equiv_pos_as_xyz
  x,y,z

loop_
_atom_site_label
_atom_site_type_symbol
_atom_site_fract_x
_atom_site_fract_y
_atom_site_fract_z
_atom_site_charge
C 	C 	0.03217 0.06436 0.98823 -0.09200
C 	C 	0.05771 0.03425 0.97975 0.06000
H 	H 	0.05906 0.11206 0.98995 0.06000
C 	C 	0.02901 0.00359 0.44164 0.04400
C 	C 	0.99921 0.02971 0.43527 -0.07400
H 	H 	0.02448 0.07604 0.43143 0.05400
Cu	Cu	0.64609 0.25375 0.00472 0.93000
Cu	Cu	0.69802 0.25312 0.89888 0.87700
Cu	Cu	0.68403 0.34672 0.93588 0.90100
Cu	Cu	0.64482 0.36399 0.03309 0.90500
C 	C 	0.66189 0.30284 0.10992 0.33400
O 	O 	0.55732 0.21835 0.99983 -0.35700
C 	C 	0.66992 0.30407 0.82487 0.33000
O 	O 	0.69480 0.34617 0.00802 -0.63800
O 	O 	0.64173 0.25915 0.93083 -0.63900
O 	O 	0.68391 0.21147 0.00610 -0.36900
O 	O 	0.75267 0.27128 0.95906 -0.43400
O 	O 	0.63289 0.32423 0.09375 -0.36200
O 	O 	0.72919 0.43234 0.94612 -0.36300
C 	C 	0.72214 0.46469 0.97956 0.31200
C 	C 	0.53458 0.24305 0.97836 0.30300
O 	O 	0.57060 0.29800 0.97145 -0.38900
O 	O 	0.67978 0.44028 0.00785 -0.38200
O 	O 	0.66280 0.26422 0.07837 -0.35800
C 	C 	0.73557 0.23386 0.99086 0.31400
O 	O 	0.68749 0.34880 0.86208 -0.35400
O 	O 	0.66271 0.25565 0.83502 -0.41600
H 	H 	0.73742 0.37214 0.02619 0.17900
H 	H 	0.60047 0.23465 0.90986 0.17600
Cu	Cu	0.73267 0.33674 0.43391 0.93000
Cu	Cu	0.73203 0.28486 0.53960 0.87700
Cu	Cu	0.63642 0.29709 0.50094 0.90100
Cu	Cu	0.62031 0.33662 0.40392 0.89900
C 	C 	0.68882 0.32744 0.32808 0.33900
O 	O 	0.76796 0.42432 0.43942 -0.35700
C 	C 	0.67832 0.31115 0.61230 0.33000
O 	O 	0.63872 0.28771 0.42901 -0.63800
O 	O 	0.72564 0.34000 0.50741 -0.63900
O 	O 	0.77549 0.29909 0.43288 -0.36200
O 	O 	0.71393 0.23119 0.47948 -0.43200
O 	O 	0.66374 0.35249 0.34471 -0.38300
O 	O 	0.54933 0.25144 0.48938 -0.36300
C 	C 	0.51650 0.25712 0.45464 0.30900
C 	C 	0.74137 0.44575 0.45964 0.30200
O 	O 	0.68568 0.40918 0.46648 -0.39000
O 	O 	0.54145 0.29984 0.42733 -0.38700
O 	O 	0.72326 0.32119 0.36038 -0.34300
C 	C 	0.75222 0.24798 0.44797 0.31200
O 	O 	0.63296 0.29263 0.57450 -0.35400
O 	O 	0.72808 0.31903 0.60301 -0.41600
H 	H 	0.61305 0.24592 0.41040 0.18100
H 	H 	0.74970 0.38050 0.52857 0.17600
C 	C 	0.61755 0.26464 0.73331 -0.09100
C 	C 	0.66601 0.31154 0.77092 -0.13100
C 	C 	0.71441 0.36211 0.75582 0.33500
C 	C 	0.71633 0.36361 0.70355 -0.09100
C 	C 	0.66986 0.31492 0.66598 -0.13100
C 	C 	0.61928 0.26633 0.68104 0.33500
F 	F 	0.57363 0.21911 0.64515 -0.44500
H 	H 	0.57962 0.22585 0.74460 0.08900
H 	H 	0.75511 0.40164 0.69227 0.08800
F 	F 	0.76137 0.40815 0.79172 -0.44500
C 	C 	0.65786 0.26010 0.18877 -0.08600
C 	C 	0.67932 0.31018 0.16576 -0.12800
C 	C 	0.71119 0.36676 0.19694 0.33500
C 	C 	0.71750 0.37265 0.25042 -0.08700
C 	C 	0.69227 0.32219 0.27326 -0.12700
C 	C 	0.66434 0.26609 0.24243 0.33500
F 	F 	0.64071 0.21705 0.26420 -0.44800
H 	H 	0.63369 0.21629 0.16508 0.09900
H 	H 	0.74025 0.41627 0.27408 0.09400
F 	F 	0.73429 0.41583 0.17527 -0.45900
C 	C 	0.80756 0.61908 0.46256 -0.00700
C 	C 	0.78113 0.63127 0.42315 -0.02500
C 	C 	0.85468 0.66568 0.50106 -0.02600
C 	C 	0.78639 0.55871 0.46312 0.05000
C 	C 	0.76711 0.50756 0.46235 -0.10500
H 	H 	0.74445 0.59542 0.39340 0.04300
C 	C 	0.81367 0.14861 0.42119 -0.00800
C 	C 	0.77645 0.08872 0.42618 -0.02600
C 	C 	0.89571 0.14129 0.41386 -0.04500
C 	C 	0.87308 0.17456 0.41428 -0.02600
C 	C 	0.79275 0.18474 0.42822 0.05300
C 	C 	0.77474 0.21429 0.43599 -0.10700
H 	H 	0.73049 0.06835 0.43160 0.04300
H 	H 	0.94207 0.16202 0.40951 0.04600
H 	H 	0.90216 0.22081 0.41046 0.04300
C 	C 	0.33525 0.16277 0.45034 -0.00500
C 	C 	0.30066 0.10266 0.45457 -0.02500
C 	C 	0.23847 0.07081 0.45270 -0.04400
C 	C 	0.21066 0.09895 0.44660 0.02300
C 	C 	0.24526 0.15908 0.44240 -0.04500
C 	C 	0.30745 0.19093 0.44427 -0.02600
C 	C 	0.39920 0.19551 0.45203 0.05300
C 	C 	0.45276 0.22333 0.45332 -0.09500
C 	C 	0.14668 0.06611 0.44470 -0.01100
C 	C 	0.09306 0.03803 0.44322 -0.02400
H 	H 	0.32186 0.08061 0.45926 0.04600
H 	H 	0.21196 0.02432 0.45598 0.04700
H 	H 	0.22405 0.18111 0.43769 0.04500
H 	H 	0.33396 0.23741 0.44097 0.04300
C 	C 	0.80927 0.64116 0.97840 -0.00300
C 	C 	0.77944 0.57891 0.97827 0.05400
C 	C 	0.75381 0.52675 0.97859 -0.09200
H 	H 	0.77929 0.65546 0.04654 0.04500
C 	C 	0.82997 0.16637 0.01558 -0.01000
C 	C 	0.83094 0.08132 0.01999 -0.04500
C 	C 	0.80026 0.10685 0.02074 -0.02600
C 	C 	0.79635 0.19022 0.00910 0.05400
C 	C 	0.76836 0.21010 0.00186 -0.11600
H 	H 	0.80727 0.03489 0.02280 0.04600
H 	H 	0.75304 0.07992 0.02394 0.04300
C 	C 	0.23362 0.11822 0.96526 0.02100
C 	C 	0.24962 0.08368 0.94202 -0.04400
C 	C 	0.31036 0.10863 0.94186 -0.02600
C 	C 	0.35530 0.16820 0.96489 -0.00800
C 	C 	0.33919 0.20316 0.98695 -0.02400
C 	C 	0.27846 0.17820 0.98717 -0.04300
C 	C 	0.17182 0.09089 0.96998 -0.00700
C 	C 	0.11991 0.06630 0.97434 -0.02900
C 	C 	0.41803 0.19281 0.96817 0.05100
C 	C 	0.47099 0.21471 0.97210 -0.10600
H 	H 	0.21516 0.03725 0.92502 0.04600
H 	H 	0.32248 0.08139 0.92463 0.04200
H 	H 	0.37373 0.24933 0.00471 0.04000
H 	H 	0.26643 0.20515 0.00521 0.04400
C 	C 	0.97178 0.03266 0.99447 0.06200
H 	H 	0.87512 0.65660 0.53180 0.04200
C 	C 	0.79912 0.05548 0.42584 -0.04500
C 	C 	0.85908 0.08195 0.42045 0.02300
C 	C 	0.88420 0.04952 0.42469 -0.01000
C 	C 	0.90697 0.02403 0.42880 -0.02400
H 	H 	0.77046 0.00960 0.43081 0.04600
C 	C 	0.89108 0.20083 0.01146 -0.02600
C 	C 	0.92174 0.17529 0.01066 -0.04500
C 	C 	0.89142 0.11520 0.01401 0.02100
C 	C 	0.92101 0.08728 0.00790 -0.00700
C 	C 	0.94480 0.06300 0.00205 -0.03100
H 	H 	0.91435 0.24689 0.00745 0.04200
H 	H 	0.96856 0.20182 0.00622 0.04600
H 	H 	0.84565 0.64101 0.91006 0.05000
C 	C 	0.80260 0.68994 0.42164 -0.04500
C 	C 	0.80492 0.67555 0.01681 -0.02800
C 	C 	0.84228 0.66740 0.93997 -0.02600
H 	H 	0.78272 0.69909 0.39049 0.04700
C 	C 	0.87613 0.72438 0.49957 -0.04500
C 	C 	0.87127 0.72795 0.94019 -0.04300
C 	C 	0.83391 0.73609 0.01703 -0.04400
C 	C 	0.85050 0.73669 0.45957 0.02300
C 	C 	0.93686 0.99620 0.43416 0.04800
C 	C 	0.02296 0.97271 0.97747 -0.09300
H 	H 	0.04281 0.94948 0.97103 0.06000
C 	C 	0.99656 0.94394 0.44678 -0.07600
H 	H 	0.01975 0.92378 0.45169 0.05400
H 	H 	0.83079 0.76254 0.04708 0.04600
C 	C 	0.96282 0.94113 0.98381 0.06100
C 	C 	0.93717 0.97104 0.99230 -0.09100
H 	H 	0.89046 0.94649 0.99712 0.06000
C 	C 	0.90424 0.93626 0.43932 -0.08200
C 	C 	0.93426 0.91017 0.44563 0.04900
H 	H 	0.85600 0.91023 0.43854 0.05700
C 	C 	0.87713 0.79748 0.45483 -0.01000
C 	C 	0.90158 0.84866 0.45065 -0.02500
H 	H 	0.91336 0.76030 0.52893 0.04700
C 	C 	0.86729 0.76244 0.97882 0.02300
C 	C 	0.89965 0.82528 0.98053 -0.00700
C 	C 	0.92775 0.87804 0.98203 -0.02900
H 	H 	0.89716 0.74811 0.91060 0.04800
