data_crystal

_cell_length_a 41.90719
_cell_length_b 38.01473
_cell_length_c 19.25132
_cell_angle_alpha 92.64149
_cell_angle_beta  85.30602
_cell_angle_gamma 123.85266

_symmetry_space_group_name_	'P 1'
_symmetry_space_group_name_H-M	'P 1'

loop_
_symmetry_equiv_pos_as_xyz
  x,y,z

loop_
_atom_site_label
_atom_site_type_symbol
_atom_site_fract_x
_atom_site_fract_y
_atom_site_fract_z
_atom_site_charge
C 	C 	0.00566 0.03838 0.81432 0.02700
C 	C 	0.00808 0.96973 0.85278 -0.02200
C 	C 	0.04263 0.00903 0.83769 0.02700
C 	C 	0.04114 0.04339 0.81949 -0.01900
S 	S 	0.93495 0.00309 0.83550 -0.00200
S 	S 	0.00303 0.92313 0.84283 -0.00500
C 	C 	0.07832 0.02170 0.86337 -0.05700
S 	S 	0.08230 0.08808 0.83788 -0.00800
H 	H 	0.02224 0.10461 0.81272 0.04700
H 	H 	0.91481 0.91059 0.81331 0.04800
C 	C 	0.10384 0.06594 0.86684 0.00400
H 	H 	0.08405 0.99976 0.88360 0.04800
C 	C 	0.22484 0.13063 0.89218 0.01600
C 	C 	0.20457 0.08969 0.86386 -0.04100
C 	C 	0.16542 0.06905 0.85328 -0.03700
C 	C 	0.14586 0.08870 0.87304 0.01100
C 	C 	0.16649 0.13011 0.89990 -0.03800
C 	C 	0.20584 0.15105 0.90896 -0.04200
H 	H 	0.21904 0.07369 0.85082 0.04200
H 	H 	0.15040 0.03789 0.82968 0.04100
H 	H 	0.15191 0.14577 0.91509 0.04200
H 	H 	0.22133 0.18271 0.93076 0.04400
C 	C 	0.91060 0.12865 0.82508 0.01300
C 	C 	0.90540 0.06197 0.80938 -0.03700
C 	C 	0.88897 0.08538 0.80869 -0.03900
H 	H 	0.88825 0.02864 0.79636 0.04200
H 	H 	0.85919 0.06969 0.79651 0.04200
C 	C 	0.88524 0.75859 0.82316 0.01200
C 	C 	0.87243 0.78149 0.86090 -0.04000
C 	C 	0.89559 0.82572 0.86181 -0.03900
C 	C 	0.93195 0.84757 0.82540 0.01200
C 	C 	0.92152 0.78047 0.78639 -0.03800
H 	H 	0.84474 0.76499 0.89023 0.04200
H 	H 	0.88551 0.84295 0.89173 0.04200
H 	H 	0.93151 0.76321 0.75628 0.03900
C 	C 	0.02571 0.99962 0.66251 0.02300
C 	C 	0.02395 0.03451 0.65067 -0.02000
S 	S 	0.91895 0.99025 0.63084 -0.01000
C 	C 	0.93017 0.91023 0.62477 -0.06000
C 	C 	0.06366 0.00922 0.65860 -0.05600
S 	S 	0.06856 0.07614 0.63277 -0.00800
H 	H 	0.00338 0.09329 0.64484 0.04600
H 	H 	0.90232 0.89959 0.60679 0.04700
C 	C 	0.09138 0.05182 0.64176 0.00100
H 	H 	0.07065 0.98694 0.67152 0.04600
C 	C 	0.21089 0.11577 0.67930 0.01200
C 	C 	0.19206 0.07689 0.64378 -0.04100
C 	C 	0.15303 0.05596 0.63227 -0.04000
C 	C 	0.13246 0.07388 0.65540 0.01200
C 	C 	0.15119 0.11257 0.69169 -0.03800
C 	C 	0.19006 0.13308 0.70441 -0.04000
H 	H 	0.20789 0.06338 0.62362 0.04100
H 	H 	0.13896 0.02623 0.60405 0.04000
H 	H 	0.13575 0.12676 0.71016 0.04300
H 	H 	0.20409 0.16264 0.73311 0.04100
C 	C 	0.89208 0.10956 0.58348 0.01100
C 	C 	0.93097 0.12612 0.56442 -0.04100
C 	C 	0.92539 0.06676 0.62070 0.01100
C 	C 	0.88655 0.05052 0.64031 -0.03800
C 	C 	0.87010 0.07198 0.62229 -0.04300
H 	H 	0.86911 0.02135 0.66977 0.04000
H 	H 	0.84020 0.05928 0.63819 0.04000
C 	C 	0.87626 0.74908 0.62913 0.01100
C 	C 	0.86198 0.77176 0.66240 -0.03900
C 	C 	0.88424 0.81603 0.66073 -0.03800
C 	C 	0.92080 0.83805 0.62490 0.01100
C 	C 	0.93498 0.81536 0.59151 -0.04000
C 	C 	0.91281 0.77112 0.59346 -0.04100
H 	H 	0.83393 0.75513 0.69041 0.03900
H 	H 	0.87340 0.83316 0.68845 0.04100
H 	H 	0.92396 0.75396 0.56703 0.04000
Co	Co	0.69890 0.32623 0.00155 1.17700
O 	O 	0.74283 0.32395 0.94607 -0.37400
Co	Co	0.61717 0.32277 0.03209 1.18000
O 	O 	0.64841 0.30082 0.95522 -0.43900
O 	O 	0.66200 0.38175 0.04013 -0.43200
O 	O 	0.69785 0.26906 0.00068 -0.36000
C 	C 	0.69117 0.39903 0.99247 0.33800
O 	O 	0.61779 0.32591 0.92064 -0.33500
C 	C 	0.54490 0.28080 0.07336 0.29400
C 	C 	0.67005 0.32436 0.13242 0.27600
O 	O 	0.56988 0.32086 0.08220 -0.36900
O 	O 	0.56149 0.26392 0.04136 -0.34600
O 	O 	0.70501 0.33675 0.11099 -0.34400
O 	O 	0.64666 0.30454 0.08338 -0.44300
O 	O 	0.71455 0.38553 0.98314 -0.51300
C 	C 	0.72883 0.28494 0.96022 0.32000
C 	C 	0.64213 0.31565 0.90296 0.27000
H 	H 	0.74139 0.40506 0.96033 0.17300
Co	Co	0.69227 0.29346 0.49358 1.18500
O 	O 	0.73355 0.29352 0.42458 -0.37400
Co	Co	0.61715 0.29615 0.55856 1.18600
O 	O 	0.64182 0.28009 0.45826 -0.44400
O 	O 	0.66603 0.34847 0.58329 -0.41500
O 	O 	0.68602 0.23501 0.46351 -0.34200
C 	C 	0.69547 0.37165 0.53812 0.33600
O 	O 	0.61672 0.31617 0.45620 -0.34500
C 	C 	0.54795 0.25616 0.61451 0.29300
C 	C 	0.66613 0.27507 0.62788 0.28900
O 	O 	0.57606 0.29321 0.63199 -0.35900
O 	O 	0.55838 0.24145 0.56220 -0.34000
O 	O 	0.70038 0.28856 0.60049 -0.34100
O 	O 	0.64224 0.26552 0.58071 -0.44500
O 	O 	0.71176 0.35520 0.49857 -0.52000
C 	C 	0.71761 0.25306 0.42430 0.29700
C 	C 	0.63708 0.30428 0.42154 0.27100
H 	H 	0.73538 0.37463 0.46678 0.17100
C 	C 	0.64850 0.30561 0.83130 0.03600
N 	N 	0.62358 0.29797 0.78290 -0.05400
N 	N 	0.62891 0.28760 0.71798 -0.07300
C 	C 	0.65968 0.28539 0.69946 0.02700
N 	N 	0.68472 0.29328 0.74778 -0.05600
N 	N 	0.67903 0.30293 0.81298 -0.07200
C 	C 	0.65696 0.31376 0.20573 0.03900
N 	N 	0.67168 0.29740 0.24360 -0.05800
N 	N 	0.66421 0.29308 0.31236 -0.07000
C 	C 	0.64224 0.30554 0.34537 0.03400
N 	N 	0.62707 0.32143 0.30748 -0.05800
N 	N 	0.63422 0.32532 0.23847 -0.07100
C 	C 	0.81077 0.61342 0.62747 0.08700
C 	C 	0.84748 0.63656 0.65305 -0.06700
C 	C 	0.86865 0.68081 0.65466 -0.02100
C 	C 	0.85298 0.70228 0.63152 -0.00400
C 	C 	0.81550 0.67899 0.60874 -0.02400
C 	C 	0.79437 0.63475 0.60715 -0.06500
H 	H 	0.85985 0.62026 0.67058 0.05500
H 	H 	0.89722 0.69840 0.67375 0.03500
H 	H 	0.80300 0.69517 0.59121 0.03600
H 	H 	0.76550 0.61708 0.58941 0.05700
N 	N 	0.79071 0.56876 0.62162 -0.08400
N 	N 	0.76940 0.54966 0.57291 -0.08900
C 	C 	0.71554 0.41802 0.54285 -0.12000
C 	C 	0.69560 0.43704 0.53313 0.04300
C 	C 	0.71352 0.48063 0.54332 -0.09600
C 	C 	0.75120 0.50537 0.56455 0.10800
C 	C 	0.77140 0.48647 0.57338 -0.09400
C 	C 	0.75357 0.44292 0.56283 0.04100
H 	H 	0.66617 0.41802 0.51799 0.02500
H 	H 	0.69803 0.49513 0.53534 0.06400
H 	H 	0.80086 0.50551 0.58822 0.06500
H 	H 	0.76907 0.42845 0.57120 0.02500
C 	C 	0.83990 0.17110 0.51626 0.08500
C 	C 	0.87096 0.19260 0.55884 -0.06800
C 	C 	0.88809 0.17262 0.58065 -0.02500
C 	C 	0.87400 0.13070 0.56056 -0.00500
C 	C 	0.84271 0.10899 0.51829 -0.02400
C 	C 	0.82556 0.12895 0.49654 -0.06500
H 	H 	0.88172 0.22478 0.57525 0.05400
H 	H 	0.91207 0.18956 0.61365 0.03600
H 	H 	0.83167 0.07665 0.50238 0.03700
H 	H 	0.80098 0.11158 0.46503 0.05700
N 	N 	0.82180 0.19126 0.49723 -0.08400
N 	N 	0.80201 0.17913 0.44554 -0.08900
C 	C 	0.74070 0.23459 0.41560 -0.09300
C 	C 	0.72214 0.19040 0.41207 0.03300
C 	C 	0.74294 0.17217 0.41885 -0.09000
C 	C 	0.78227 0.19787 0.42974 0.10500
C 	C 	0.80148 0.24210 0.42781 -0.08800
C 	C 	0.78082 0.26042 0.42049 0.03100
H 	H 	0.69137 0.17015 0.40677 0.03800
H 	H 	0.72817 0.13803 0.41859 0.06200
H 	H 	0.83215 0.26219 0.43400 0.06300
H 	H 	0.79573 0.29458 0.42181 0.03600
C 	C 	0.33346 0.18207 0.67878 0.08500
C 	C 	0.31672 0.20242 0.65654 -0.07000
C 	C 	0.27670 0.18150 0.65965 -0.02400
C 	C 	0.25298 0.13989 0.68517 -0.00500
C 	C 	0.26976 0.12018 0.71055 -0.02400
C 	C 	0.30981 0.14109 0.70717 -0.06600
H 	H 	0.33476 0.23392 0.63441 0.05500
H 	H 	0.26412 0.19703 0.63973 0.03600
H 	H 	0.25179 0.08817 0.73065 0.03600
H 	H 	0.32239 0.12491 0.72424 0.05900
N 	N 	0.37338 0.20055 0.66358 -0.08400
N 	N 	0.39216 0.19381 0.70147 -0.08800
C 	C 	0.50748 0.23881 0.63766 -0.09000
C 	C 	0.49825 0.24915 0.70395 0.03300
C 	C 	0.45991 0.23350 0.72553 -0.08900
C 	C 	0.43067 0.20802 0.68073 0.10600
C 	C 	0.43969 0.19679 0.61518 -0.08800
C 	C 	0.47793 0.21207 0.59374 0.03100
H 	H 	0.52074 0.26922 0.73873 0.04500
H 	H 	0.45301 0.24173 0.77657 0.06800
H 	H 	0.41707 0.17645 0.58081 0.06500
H 	H 	0.48460 0.20359 0.54270 0.04100
C 	C 	0.81377 0.62317 0.83595 0.08900
C 	C 	0.85291 0.64489 0.84762 -0.06900
C 	C 	0.87644 0.68901 0.84229 -0.02200
C 	C 	0.86108 0.71172 0.82375 -0.00400
C 	C 	0.82222 0.68966 0.80844 -0.02100
C 	C 	0.79869 0.64554 0.81430 -0.06400
H 	H 	0.86481 0.62766 0.86317 0.05600
H 	H 	0.90636 0.70559 0.85404 0.03700
H 	H 	0.81019 0.70670 0.79273 0.03500
H 	H 	0.76871 0.62880 0.80297 0.05900
N 	N 	0.78941 0.57911 0.84899 -0.08400
N 	N 	0.75816 0.56404 0.88411 -0.08300
C 	C 	0.70347 0.44000 0.96180 -0.08800
C 	C 	0.71675 0.44846 0.89130 0.02000
C 	C 	0.73362 0.48917 0.86455 -0.07600
C 	C 	0.73718 0.52167 0.90813 0.08800
C 	C 	0.72142 0.51247 0.97705 -0.04100
C 	C 	0.70479 0.47184 0.00401 -0.01300
H 	H 	0.71489 0.42377 0.85776 0.03000
H 	H 	0.74462 0.49569 0.81054 0.06600
H 	H 	0.72345 0.53725 0.01050 0.03900
H 	H 	0.69424 0.46558 0.05828 0.04400
C 	C 	0.79107 0.22619 0.92167 0.11200
C 	C 	0.75738 0.20675 0.96571 -0.10100
C 	C 	0.73705 0.22587 0.97839 0.06200
C 	C 	0.75060 0.26506 0.94772 -0.10600
C 	C 	0.78454 0.28469 0.90378 0.04000
C 	C 	0.80481 0.26547 0.89109 -0.09200
H 	H 	0.74696 0.17677 0.99020 0.07100
H 	H 	0.71088 0.21028 0.01225 0.02500
H 	H 	0.79525 0.31481 0.87949 0.03800
H 	H 	0.83132 0.28125 0.85821 0.06800
N 	N 	0.81240 0.20748 0.91241 -0.08700
N 	N 	0.83031 0.21031 0.85564 -0.08400
C 	C 	0.89201 0.15225 0.83156 -0.00400
C 	C 	0.87388 0.15430 0.77515 -0.02300
C 	C 	0.85417 0.17437 0.78288 -0.06800
C 	C 	0.85197 0.19195 0.84722 0.08700
C 	C 	0.87124 0.19117 0.90296 -0.06400
C 	C 	0.89092 0.17116 0.89527 -0.02200
H 	H 	0.87460 0.13985 0.72579 0.03800
H 	H 	0.83995 0.17550 0.73934 0.05700
H 	H 	0.87064 0.20573 0.95232 0.06000
H 	H 	0.90481 0.16976 0.93914 0.04000
C 	C 	0.34183 0.19001 0.94250 0.08500
C 	C 	0.31172 0.15763 0.98504 -0.05000
C 	C 	0.27354 0.13812 0.96832 -0.00800
C 	C 	0.26515 0.15084 0.90901 -0.00900
C 	C 	0.29522 0.18312 0.86639 -0.02000
C 	C 	0.33348 0.20216 0.88251 -0.06500
H 	H 	0.31797 0.14734 0.03056 0.04300
H 	H 	0.25048 0.11317 0.00145 0.02200
H 	H 	0.28896 0.19332 0.82075 0.04000
H 	H 	0.35662 0.22648 0.84865 0.06000
N 	N 	0.38064 0.20853 0.95746 -0.07500
N 	N 	0.39101 0.22077 0.01767 -0.09800
C 	C 	0.50378 0.26338 0.06576 -0.09700
C 	C 	0.48039 0.22375 0.03374 0.03900
C 	C 	0.44312 0.20968 0.01780 -0.11400
C 	C 	0.42865 0.23480 0.03433 0.11000
C 	C 	0.45101 0.27314 0.06989 -0.09600
C 	C 	0.48852 0.28753 0.08536 0.03300
H 	H 	0.49134 0.20423 0.01986 0.03700
H 	H 	0.42551 0.17934 0.99237 0.08300
H 	H 	0.43959 0.29213 0.08440 0.06100
H 	H 	0.50585 0.31771 0.11142 0.03700
C 	C 	0.94306 0.92075 0.82852 -0.05900
C 	C 	0.94915 0.14858 0.84060 -0.04100
C 	C 	0.94371 0.08155 0.82696 0.01200
C 	C 	0.94480 0.82472 0.78774 -0.03700
C 	C 	0.94219 0.04297 0.63787 0.00300
C 	C 	0.94474 0.88474 0.62365 0.00200
C 	C 	0.94757 0.10487 0.58279 -0.03900
H 	H 	0.94814 0.15503 0.53417 0.04100
C 	C 	0.95719 0.98729 0.62442 -0.02200
C 	C 	0.95718 0.95243 0.64584 0.02300
C 	C 	0.96037 0.05619 0.83261 0.00200
C 	C 	0.95648 0.89426 0.82645 0.00400
C 	C 	0.96548 0.12511 0.84239 -0.03800
H 	H 	0.96615 0.18204 0.85309 0.04200
H 	H 	0.96312 0.83200 0.56374 0.04000
C 	C 	0.97167 0.99777 0.82014 -0.02200
C 	C 	0.97233 0.96356 0.84215 0.02700
H 	H 	0.97254 0.84123 0.75860 0.04200
H 	H 	0.97732 0.11750 0.56593 0.04000
C 	C 	0.98187 0.06013 0.63563 -0.05800
C 	C 	0.99948 0.07148 0.81988 -0.05700
H 	H 	0.99467 0.14060 0.85778 0.04000
C 	C 	0.99028 0.02873 0.62876 0.02500
C 	C 	0.99192 0.95884 0.66387 -0.01900
S 	S 	0.98956 0.91394 0.64989 -0.00900
