data_crystal

_cell_length_a 18.44997
_cell_length_b 18.94098
_cell_length_c 34.35634
_cell_angle_alpha 95.45992
_cell_angle_beta  95.46026
_cell_angle_gamma 126.42237

_symmetry_space_group_name_	'P 1'
_symmetry_space_group_name_H-M	'P 1'

loop_
_symmetry_equiv_pos_as_xyz
  x,y,z

loop_
_atom_site_label
_atom_site_type_symbol
_atom_site_fract_x
_atom_site_fract_y
_atom_site_fract_z
_atom_site_charge
C 	C 	0.85029 0.94001 0.97109 0.04400
C 	C 	0.94629 0.99637 0.97745 -0.07900
C 	C 	0.99353 0.96086 0.97116 0.03900
C 	C 	0.94558 0.86813 0.96350 -0.07700
C 	C 	0.85034 0.81062 0.96090 0.03800
C 	C 	0.80179 0.84650 0.96317 -0.07600
H 	H 	0.98390 0.06812 0.98544 0.06400
H 	H 	0.98245 0.84059 0.95973 0.05400
H 	H 	0.72762 0.80239 0.95923 0.05800
C 	C 	0.98716 0.06738 0.48620 0.04900
C 	C 	0.08237 0.11725 0.48866 -0.08400
C 	C 	0.12554 0.07759 0.49605 0.04700
C 	C 	0.07341 0.98821 0.50062 -0.08400
C 	C 	0.97832 0.93817 0.49749 0.04500
C 	C 	0.93566 0.97832 0.49121 -0.08400
H 	H 	0.12251 0.18629 0.48489 0.05600
H 	H 	0.10669 0.95744 0.50616 0.06200
H 	H 	0.86213 0.93982 0.48944 0.06100
Cu	Cu	0.70458 0.28549 0.95556 0.92500
Cu	Cu	0.68679 0.22885 0.04291 0.87100
Cu	Cu	0.57053 0.26802 0.00678 0.89700
Cu	Cu	0.52071 0.25431 0.91763 0.90700
C 	C 	0.64614 0.25302 0.87125 0.30700
O 	O 	0.75510 0.41221 0.94829 -0.36000
C 	C 	0.63150 0.31312 0.09380 0.30200
O 	O 	0.56110 0.21181 0.95445 -0.63500
O 	O 	0.70033 0.31434 0.01145 -0.64400
O 	O 	0.76575 0.22740 0.96440 -0.35900
O 	O 	0.66278 0.13910 0.00188 -0.42600
O 	O 	0.56107 0.22171 0.87247 -0.36200
O 	O 	0.44112 0.21360 0.00263 -0.36200
C 	C 	0.38102 0.18068 0.96911 0.29300
C 	C 	0.70602 0.44192 0.94944 0.28800
O 	O 	0.61961 0.38821 0.95273 -0.38500
O 	O 	0.40632 0.21375 0.93663 -0.38100
O 	O 	0.69357 0.24687 0.90010 -0.36100
C 	C 	0.72649 0.15674 0.98147 0.28800
O 	O 	0.58730 0.31763 0.06258 -0.35900
O 	O 	0.68964 0.29484 0.08980 -0.41100
H 	H 	0.52420 0.14593 0.95057 0.16800
H 	H 	0.74490 0.37792 0.02462 0.17900
Cu	Cu	0.67352 0.25316 0.50738 0.92300
Cu	Cu	0.73842 0.27976 0.42011 0.88200
Cu	Cu	0.68505 0.39042 0.46455 0.90700
Cu	Cu	0.68909 0.41971 0.55140 0.90600
C 	C 	0.71252 0.30355 0.59328 0.31900
O 	O 	0.54385 0.20664 0.51346 -0.35100
C 	C 	0.67529 0.36704 0.38207 0.31600
O 	O 	0.74365 0.39213 0.51548 -0.63400
O 	O 	0.65143 0.26863 0.45229 -0.63700
O 	O 	0.72556 0.18586 0.49854 -0.34200
O 	O 	0.72756 0.18038 0.43220 -0.40400
O 	O 	0.67039 0.33973 0.58910 -0.37800
O 	O 	0.70713 0.50518 0.47630 -0.37300
C 	C 	0.75985 0.56650 0.50860 0.29400
C 	C 	0.50970 0.24951 0.50520 0.28000
O 	O 	0.56437 0.33652 0.50695 -0.39800
O 	O 	0.76328 0.54418 0.54344 -0.38100
O 	O 	0.71508 0.25926 0.56217 -0.35500
C 	C 	0.76197 0.18263 0.46784 0.27500
O 	O 	0.63923 0.38132 0.40992 -0.37100
O 	O 	0.74611 0.36747 0.39207 -0.41600
H 	H 	0.81155 0.43244 0.52018 0.16200
H 	H 	0.58695 0.22349 0.43843 0.18100
C 	C 	0.67608 0.26671 0.83232 -0.09300
C 	C 	0.65015 0.30434 0.80596 0.14600
C 	C 	0.67064 0.30807 0.76774 -0.08400
C 	C 	0.71787 0.27596 0.75535 0.02100
C 	C 	0.74831 0.24300 0.78216 0.08700
C 	C 	0.72691 0.23796 0.82036 -0.01300
H 	H 	0.64890 0.33525 0.74739 0.08100
C 	C 	0.73227 0.27473 0.71379 0.02500
H 	H 	0.74811 0.20989 0.84038 0.07200
C 	C 	0.80240 0.35423 0.70287 -0.08500
C 	C 	0.80185 0.36175 0.66271 0.14400
C 	C 	0.73102 0.28909 0.63313 -0.09800
C 	C 	0.66694 0.20674 0.64379 -0.00800
C 	C 	0.66670 0.19943 0.68395 0.08400
H 	H 	0.85440 0.41171 0.72569 0.08200
H 	H 	0.61341 0.14998 0.62103 0.06800
Br	Br	0.81830 0.20379 0.76700 -0.20900
Br	Br	0.58862 0.35319 0.82160 -0.26100
Br	Br	0.89622 0.47279 0.64882 -0.25500
Br	Br	0.57238 0.08794 0.69757 -0.20500
C 	C 	0.64415 0.36098 0.34003 -0.10600
C 	C 	0.61322 0.28551 0.31162 0.14700
C 	C 	0.60295 0.28781 0.27103 -0.08600
C 	C 	0.62206 0.36452 0.25838 0.02200
C 	C 	0.64435 0.43672 0.28664 0.08600
C 	C 	0.65607 0.43498 0.32738 -0.00700
H 	H 	0.58280 0.23093 0.24930 0.08000
C 	C 	0.62642 0.37131 0.21603 0.02300
H 	H 	0.67775 0.49244 0.34914 0.06300
C 	C 	0.54475 0.32423 0.18783 -0.08500
C 	C 	0.54574 0.31086 0.14711 0.14200
C 	C 	0.62963 0.34541 0.13436 -0.09500
C 	C 	0.71198 0.40053 0.16240 -0.01500
C 	C 	0.71071 0.41237 0.20307 0.08500
H 	H 	0.47990 0.29423 0.19767 0.08200
H 	H 	0.77699 0.43027 0.15275 0.06300
Br	Br	0.66106 0.53874 0.27018 -0.21200
Br	Br	0.58429 0.17848 0.32778 -0.28700
Br	Br	0.43145 0.24237 0.10993 -0.23600
Br	Br	0.82448 0.47953 0.24061 -0.21600
C 	C 	0.92289 0.84306 0.50028 0.00100
C 	C 	0.87783 0.81515 0.53254 -0.06600
C 	C 	0.82081 0.72459 0.53479 0.05800
C 	C 	0.81323 0.66147 0.50565 -0.08900
C 	C 	0.85769 0.68952 0.47319 -0.00300
C 	C 	0.91072 0.77944 0.46991 -0.00100
S 	S 	0.75312 0.69076 0.57192 -0.03200
S 	S 	0.95796 0.81088 0.42681 -0.02700
H 	H 	0.89843 0.81033 0.39945 0.04600
H 	H 	0.67091 0.67317 0.55773 0.04200
H 	H 	0.88510 0.86382 0.55532 0.05700
H 	H 	0.85063 0.64110 0.45033 0.04100
C 	C 	0.94070 0.10797 0.47851 -0.00300
C 	C 	0.95292 0.17152 0.50860 -0.05900
C 	C 	0.89661 0.19820 0.50514 0.04600
C 	C 	0.82478 0.15840 0.47173 -0.08500
C 	C 	0.81583 0.09815 0.44076 -0.00800
C 	C 	0.87465 0.07452 0.44359 0.00100
S 	S 	0.91992 0.28446 0.54172 -0.02400
S 	S 	0.86612 0.00420 0.40295 -0.02600
H 	H 	0.92464 0.05537 0.37877 0.04100
H 	H 	0.97865 0.36507 0.53059 0.02900
H 	H 	0.00519 0.19896 0.53508 0.05400
H 	H 	0.76286 0.06942 0.41445 0.05300
C 	C 	0.22539 0.12912 0.49881 -0.00100
C 	C 	0.26143 0.14122 0.46377 -0.06300
C 	C 	0.35404 0.17874 0.46536 0.05200
C 	C 	0.41113 0.20387 0.50234 -0.08400
C 	C 	0.37545 0.19314 0.53739 -0.00400
C 	C 	0.28334 0.15695 0.53588 0.00000
S 	S 	0.39730 0.19260 0.42088 -0.04400
S 	S 	0.24171 0.14855 0.58060 -0.02300
H 	H 	0.24993 0.22423 0.59323 0.04000
H 	H 	0.43267 0.27642 0.41385 0.05000
H 	H 	0.21690 0.11964 0.43522 0.05600
H 	H 	0.41993 0.21452 0.56594 0.04600
C 	C 	0.75112 0.53873 0.95381 -0.08400
C 	C 	0.74359 0.58201 0.98693 -0.00600
C 	C 	0.77016 0.66886 0.98859 -0.00100
C 	C 	0.80274 0.71289 0.95630 0.00200
C 	C 	0.80880 0.66882 0.92290 -0.06300
C 	C 	0.78648 0.58374 0.92216 0.05100
S 	S 	0.76527 0.72265 0.03184 -0.02600
S 	S 	0.80696 0.53626 0.88227 -0.01500
H 	H 	0.89318 0.55926 0.89160 0.04400
H 	H 	0.84831 0.77119 0.05731 0.04100
H 	H 	0.71629 0.54772 0.01136 0.04300
H 	H 	0.83578 0.70293 0.89838 0.05500
C 	C 	0.75532 0.09830 0.97870 -0.09000
C 	C 	0.75647 0.06252 0.94126 -0.00400
C 	C 	0.77971 0.00398 0.93797 0.00900
C 	C 	0.80157 0.98014 0.97244 -0.01100
C 	C 	0.79672 0.01305 0.00964 -0.05300
C 	C 	0.77614 0.07348 0.01314 0.05700
S 	S 	0.78295 0.96236 0.89066 -0.02800
S 	S 	0.78445 0.12317 0.06105 -0.08900
H 	H 	0.87191 0.20025 0.07414 0.03900
H 	H 	0.69941 0.88221 0.87507 0.04300
H 	H 	0.73924 0.08009 0.91465 0.05200
H 	H 	0.81480 0.99608 0.03625 0.05100
C 	C 	0.09347 0.02071 0.97198 0.00500
C 	C 	0.15098 0.01047 0.99640 -0.06200
C 	C 	0.24375 0.05832 0.99404 0.06100
C 	C 	0.28245 0.12575 0.97084 -0.08300
C 	C 	0.22540 0.13812 0.94750 -0.00100
C 	C 	0.13089 0.08281 0.94620 -0.00200
S 	S 	0.30658 0.02457 0.01555 -0.05300
S 	S 	0.05980 0.08639 0.90966 -0.02400
H 	H 	0.03209 0.02437 0.87625 0.04300
H 	H 	0.34068 0.06344 0.05498 0.05900
H 	H 	0.12234 0.96156 0.01563 0.05200
H 	H 	0.25420 0.18881 0.92914 0.05200
