data_crystal

_cell_length_a 26.18753
_cell_length_b 26.37681
_cell_length_c 23.23286
_cell_angle_alpha 95.49524
_cell_angle_beta  95.49486
_cell_angle_gamma 125.81467

_symmetry_space_group_name_	'P 1'
_symmetry_space_group_name_H-M	'P 1'

loop_
_symmetry_equiv_pos_as_xyz
  x,y,z

loop_
_atom_site_label
_atom_site_type_symbol
_atom_site_fract_x
_atom_site_fract_y
_atom_site_fract_z
_atom_site_charge
C 	C 	0.06004 0.03200 0.00545 0.18000
N 	N 	0.02826 0.05827 0.00719 -0.09300
C 	C 	0.03382 0.01208 0.44156 0.19300
C 	C 	0.19818 0.07154 0.41388 -0.10400
C 	C 	0.23761 0.12227 0.46165 0.00500
C 	C 	0.20992 0.13684 0.50271 0.31700
C 	C 	0.14328 0.10109 0.49574 -0.08100
C 	C 	0.10383 0.05024 0.44805 -0.06300
C 	C 	0.13155 0.03551 0.40713 0.32700
H 	H 	0.12225 0.11247 0.52772 0.12200
H 	H 	0.21926 0.06045 0.38173 0.13100
C 	C 	0.23413 0.09881 0.03874 -0.15400
C 	C 	0.25504 0.12481 0.98855 0.03500
C 	C 	0.15070 0.10005 0.95492 -0.05500
C 	C 	0.12892 0.07147 0.00383 -0.08700
C 	C 	0.17139 0.07224 0.04640 0.36400
H 	H 	0.11823 0.09946 0.92175 0.11900
F 	F 	0.15127 0.04575 0.09445 -0.40900
H 	H 	0.26627 0.09840 0.07141 0.12800
F 	F 	0.01732 0.14412 0.07361 -0.37900
C 	C 	0.21344 0.12638 0.94709 0.31200
F 	F 	0.24763 0.18544 0.54941 -0.39800
F 	F 	0.23325 0.15179 0.89850 -0.38700
N 	N 	0.00501 0.04114 0.44420 -0.11400
C 	C 	0.96428 0.02101 0.00798 0.13900
C 	C 	0.81257 0.15713 0.48524 -0.13800
C 	C 	0.86741 0.11470 0.44332 -0.00000
H 	H 	0.79835 0.12513 0.51635 0.13300
C 	C 	0.91524 0.12880 0.48931 0.31600
C 	C 	0.93624 0.09081 0.48968 -0.09200
C 	C 	0.91010 0.03861 0.44394 -0.05100
C 	C 	0.86083 0.02329 0.39879 0.31600
C 	C 	0.83959 0.06125 0.39857 -0.10200
H 	H 	0.97407 0.10289 0.52479 0.11300
H 	H 	0.80214 0.04963 0.36327 0.12900
C 	C 	0.34046 0.13519 0.47876 0.29300
F 	F 	0.30815 0.07454 0.48826 -0.40300
C 	C 	0.85928 0.09917 0.01054 -0.01400
C 	C 	0.83060 0.03772 0.97900 0.34200
C 	C 	0.86528 0.01287 0.97769 -0.11900
C 	C 	0.92879 0.04871 0.00857 -0.05200
C 	C 	0.95698 0.10969 0.04151 0.31700
F 	F 	0.76932 0.00241 0.94889 -0.41100
H 	H 	0.30018 0.05754 0.96080 0.13100
H 	H 	0.43098 0.15004 0.48739 0.10200
F 	F 	0.94235 0.18020 0.53297 -0.41000
C 	C 	0.82550 0.12840 0.00571 0.00600
H 	H 	0.82904 0.13193 0.91361 0.13000
C 	C 	0.84620 0.15569 0.44243 0.02600
C 	C 	0.30778 0.16149 0.46728 0.02700
C 	C 	0.40641 0.17120 0.47982 -0.05200
C 	C 	0.92239 0.13483 0.04212 -0.10100
C 	C 	0.80411 0.14108 0.05448 0.30100
C 	C 	0.81311 0.14198 0.95151 -0.11400
F 	F 	0.81507 0.12736 0.10703 -0.40200
C 	C 	0.32044 0.15014 0.97948 0.01600
C 	C 	0.39965 0.13260 0.96247 0.37700
C 	C 	0.33651 0.10851 0.96676 -0.13800
F 	F 	0.41435 0.09174 0.94982 -0.42100
C 	C 	0.94041 0.00610 0.43948 0.15000
C 	C 	0.77103 0.16770 0.04893 -0.06900
C 	C 	0.77967 0.16792 0.94576 0.36700
H 	H 	0.75542 0.17810 0.08689 0.10900
H 	H 	0.94489 0.18231 0.06655 0.12700
C 	C 	0.75921 0.18184 0.99471 -0.12600
O 	O 	0.67477 0.19164 0.00927 -0.35900
C 	C 	0.86378 0.19693 0.40184 0.29100
F 	F 	0.89636 0.19602 0.36018 -0.39900
F 	F 	0.76625 0.17863 0.89234 -0.46500
C 	C 	0.79850 0.20080 0.48892 0.37600
F 	F 	0.76600 0.20165 0.53069 -0.47700
O 	O 	0.53904 0.19864 0.99718 -0.30900
C 	C 	0.44734 0.19873 0.97106 -0.13200
N 	N 	0.02769 0.96852 0.00329 -0.08800
F 	F 	0.09393 0.98710 0.36024 -0.36600
F 	F 	0.83538 0.97327 0.35400 -0.37100
N 	N 	0.93216 0.95734 0.00521 -0.09100
C 	C 	0.96371 0.93099 0.00264 0.16600
N 	N 	0.90454 0.94156 0.43282 -0.08000
C 	C 	0.93358 0.91244 0.43043 0.20600
N 	N 	0.99809 0.94784 0.43462 -0.11200
Cu	Cu	0.63358 0.23605 0.00338 0.92700
Cu	Cu	0.69083 0.23368 0.88414 0.90500
Cu	Cu	0.67092 0.33012 0.91858 0.90700
Cu	Cu	0.63301 0.35497 0.02919 0.89900
C 	C 	0.64678 0.29133 0.12203 0.28700
C 	C 	0.66192 0.28305 0.79363 0.28400
O 	O 	0.68540 0.33418 0.00227 -0.64500
O 	O 	0.62792 0.23733 0.91749 -0.62600
O 	O 	0.74663 0.25559 0.95505 -0.39600
O 	O 	0.61745 0.31407 0.09980 -0.36100
O 	O 	0.71825 0.42146 0.92514 -0.33700
C 	C 	0.71704 0.45881 0.96625 0.34200
C 	C 	0.51523 0.22513 0.97202 0.33400
O 	O 	0.55445 0.28208 0.95998 -0.37500
O 	O 	0.67187 0.43546 0.99844 -0.35800
O 	O 	0.65207 0.25189 0.08830 -0.33500
C 	C 	0.72823 0.21375 0.98951 0.35200
O 	O 	0.66590 0.32599 0.83243 -0.33500
O 	O 	0.65475 0.23269 0.80857 -0.37100
H 	H 	0.73102 0.36288 0.02199 0.17700
H 	H 	0.58421 0.20921 0.89323 0.20300
Cu	Cu	0.72655 0.33498 0.42024 0.92900
Cu	Cu	0.76064 0.31039 0.55096 0.91000
Cu	Cu	0.63730 0.31066 0.50764 0.91800
Cu	Cu	0.60908 0.33996 0.39364 0.92000
C 	C 	0.66690 0.31517 0.30036 0.28200
O 	O 	0.76809 0.42888 0.41895 -0.34200
C 	C 	0.67234 0.29943 0.62159 0.28300
O 	O 	0.62901 0.28899 0.42449 -0.63700
O 	O 	0.72993 0.35012 0.50697 -0.62200
O 	O 	0.76119 0.28378 0.41423 -0.34900
O 	O 	0.82290 0.32763 0.50580 -0.38300
O 	O 	0.64469 0.34594 0.32033 -0.33700
O 	O 	0.54663 0.26666 0.50513 -0.35800
C 	C 	0.50867 0.26969 0.46628 0.33800
C 	C 	0.74344 0.45643 0.44060 0.33100
O 	O 	0.68763 0.42160 0.45665 -0.35400
O 	O 	0.53170 0.30987 0.42930 -0.33000
O 	O 	0.70600 0.31023 0.33555 -0.33000
C 	C 	0.80461 0.29062 0.45476 0.34400
O 	O 	0.64958 0.32462 0.59281 -0.34000
O 	O 	0.68989 0.26841 0.59273 -0.37600
H 	H 	0.59820 0.24287 0.40800 0.18000
H 	H 	0.75693 0.39606 0.52424 0.17300
C 	C 	0.66378 0.29047 0.73317 -0.00700
C 	C 	0.66694 0.29527 0.68225 -0.01600
C 	C 	0.65680 0.29590 0.18482 -0.01800
C 	C 	0.66263 0.30294 0.23777 -0.01000
C 	C 	0.83283 0.74839 0.46746 -0.12100
C 	C 	0.84492 0.71532 0.42695 0.00800
C 	C 	0.88016 0.74529 0.38360 0.32600
C 	C 	0.90540 0.80870 0.38235 -0.07800
C 	C 	0.89582 0.84283 0.42446 -0.06200
C 	C 	0.85818 0.81195 0.46630 0.35500
C 	C 	0.81962 0.64893 0.42932 0.02700
F 	F 	0.89068 0.71321 0.34321 -0.39200
H 	H 	0.93406 0.83197 0.34969 0.14000
F 	F 	0.84870 0.84430 0.50750 -0.40500
H 	H 	0.80481 0.72521 0.50050 0.13000
C 	C 	0.86022 0.63477 0.45355 0.30200
C 	C 	0.83570 0.57160 0.45593 -0.04900
C 	C 	0.77051 0.52235 0.43445 -0.13800
C 	C 	0.73034 0.53659 0.40906 0.38000
C 	C 	0.75484 0.59960 0.40681 -0.14300
F 	F 	0.92315 0.68221 0.47526 -0.39400
H 	H 	0.86706 0.56112 0.47540 0.10200
F 	F 	0.66771 0.48922 0.38597 -0.44200
H 	H 	0.72347 0.61011 0.38741 0.13500
C 	C 	0.84920 0.24037 0.40522 -0.04100
C 	C 	0.81769 0.24333 0.44948 -0.15000
H 	H 	0.86350 0.27248 0.37420 0.10400
C 	C 	0.44025 0.23378 0.46957 -0.13300
C 	C 	0.40782 0.26084 0.46030 0.38100
C 	C 	0.34183 0.22460 0.45876 -0.13400
F 	F 	0.44032 0.32235 0.45334 -0.40800
H 	H 	0.31696 0.24534 0.45038 0.14500
C 	C 	0.79081 0.61907 0.92343 -0.13400
C 	C 	0.82852 0.65998 0.97743 0.03900
C 	C 	0.83262 0.63462 0.02661 0.28200
C 	C 	0.79759 0.56879 0.02225 -0.06700
C 	C 	0.75887 0.52781 0.96862 -0.12100
C 	C 	0.75628 0.55320 0.91892 0.38100
C 	C 	0.86222 0.72915 0.98284 0.01900
F 	F 	0.87017 0.67380 0.07872 -0.39800
H 	H 	0.79995 0.54952 0.06072 0.09500
F 	F 	0.71851 0.51400 0.86689 -0.41500
H 	H 	0.78746 0.63830 0.88527 0.14200
C 	C 	0.91286 0.76457 0.95284 0.31700
C 	C 	0.94539 0.83028 0.95891 -0.08800
C 	C 	0.92805 0.86137 0.99545 -0.03200
C 	C 	0.87723 0.82577 0.02546 0.33700
C 	C 	0.84425 0.75992 0.01876 -0.12300
F 	F 	0.93100 0.73539 0.91834 -0.40400
H 	H 	0.98407 0.85707 0.93516 0.12300
F 	F 	0.86089 0.85512 0.06221 -0.39400
H 	H 	0.80512 0.73281 0.04197 0.13900
H 	H 	0.84289 0.96585 0.95223 0.15800
C 	C 	0.36763 0.21602 0.98655 0.31100
C 	C 	0.43064 0.24015 0.98216 -0.05400
F 	F 	0.35280 0.25677 0.99926 -0.38700
H 	H 	0.46690 0.29121 0.98912 0.10100
