data_crystal

_cell_length_a 18.77743
_cell_length_b 18.82314
_cell_length_c 40.14711
_cell_angle_alpha 95.44789
_cell_angle_beta  95.44725
_cell_angle_gamma 126.41268

_symmetry_space_group_name_	'P 1'
_symmetry_space_group_name_H-M	'P 1'

loop_
_symmetry_equiv_pos_as_xyz
  x,y,z

loop_
_atom_site_label
_atom_site_type_symbol
_atom_site_fract_x
_atom_site_fract_y
_atom_site_fract_z
_atom_site_charge
C 	C 	0.92202 0.01793 0.96799 0.04000
C 	C 	0.01504 0.07202 0.96848 -0.05500
C 	C 	0.06061 0.03420 0.96882 0.04600
C 	C 	0.01317 0.94203 0.96801 -0.05100
C 	C 	0.92033 0.88724 0.96745 0.04900
C 	C 	0.87428 0.92504 0.96728 -0.04700
H 	H 	0.05220 0.14371 0.96945 0.07100
H 	H 	0.04887 0.91316 0.96852 0.06800
H 	H 	0.80257 0.88307 0.96732 0.07200
C 	C 	0.93678 0.02119 0.49832 0.04300
C 	C 	0.88041 0.92805 0.49672 -0.04700
C 	C 	0.91598 0.88063 0.49610 0.05200
C 	C 	0.00804 0.92580 0.49701 -0.05000
C 	C 	0.06508 0.01861 0.49813 0.04500
C 	C 	0.02955 0.06683 0.49874 -0.05500
H 	H 	0.80877 0.89249 0.49592 0.07500
H 	H 	0.03521 0.88853 0.49638 0.07000
H 	H 	0.07344 0.13877 0.49960 0.07000
Cu	Cu	0.76164 0.35514 0.96507 0.92900
Cu	Cu	0.76373 0.29720 0.03954 0.87600
Cu	Cu	0.62369 0.31319 0.01057 0.90000
Cu	Cu	0.59400 0.35037 0.94126 0.90500
C 	C 	0.68884 0.31799 0.89361 0.29300
O 	O 	0.81541 0.48586 0.96284 -0.33900
C 	C 	0.69051 0.35059 0.08533 0.28900
O 	O 	0.62209 0.28357 0.96319 -0.63700
O 	O 	0.75570 0.37454 0.01380 -0.63800
O 	O 	0.82214 0.29609 0.96852 -0.35100
O 	O 	0.73111 0.20604 0.00293 -0.42900
O 	O 	0.65340 0.35911 0.90151 -0.36000
O 	O 	0.49413 0.24658 0.00422 -0.37100
C 	C 	0.44385 0.24465 0.97822 0.30900
C 	C 	0.77628 0.52130 0.97303 0.29700
O 	O 	0.69428 0.46901 0.97899 -0.38500
O 	O 	0.47983 0.30339 0.95779 -0.37100
O 	O 	0.74387 0.31811 0.91684 -0.33900
C 	C 	0.78637 0.22318 0.98187 0.30600
O 	O 	0.62349 0.32347 0.06021 -0.37500
O 	O 	0.76335 0.36037 0.07932 -0.41100
H 	H 	0.58255 0.21830 0.95367 0.18100
H 	H 	0.79384 0.43825 0.02547 0.17900
Cu	Cu	0.60939 0.19691 0.50769 0.92700
Cu	Cu	0.65681 0.17281 0.43131 0.89300
Cu	Cu	0.63240 0.32356 0.46020 0.91400
Cu	Cu	0.59223 0.35247 0.52827 0.90700
C 	C 	0.63190 0.26788 0.57851 0.31300
O 	O 	0.47463 0.13149 0.50767 -0.33700
C 	C 	0.64600 0.28721 0.39243 0.30500
O 	O 	0.66722 0.33312 0.50803 -0.63600
O 	O 	0.58898 0.19697 0.45805 -0.62800
O 	O 	0.69162 0.16060 0.51061 -0.35100
O 	O 	0.64813 0.08818 0.45544 -0.39800
O 	O 	0.58531 0.29644 0.56880 -0.35900
O 	O 	0.68337 0.44835 0.46295 -0.36800
C 	C 	0.68996 0.49950 0.48979 0.31000
C 	C 	0.43318 0.16414 0.49619 0.29400
O 	O 	0.48045 0.24569 0.48970 -0.39000
O 	O 	0.63423 0.46475 0.51138 -0.36700
O 	O 	0.64228 0.21937 0.55649 -0.34700
C 	C 	0.69923 0.11640 0.48551 0.30200
O 	O 	0.60542 0.30815 0.41123 -0.36800
O 	O 	0.69966 0.27118 0.40686 -0.40200
H 	H 	0.73258 0.37853 0.51713 0.18000
H 	H 	0.52428 0.15443 0.44752 0.16300
C 	C 	0.68537 0.29258 0.85726 -0.06500
C 	C 	0.60624 0.25480 0.83350 0.01900
C 	C 	0.60628 0.24359 0.79859 -0.05500
C 	C 	0.68540 0.26987 0.78704 0.03200
C 	C 	0.76343 0.30358 0.81074 -0.05500
C 	C 	0.76340 0.31469 0.84572 0.02600
C 	C 	0.68810 0.26820 0.75034 0.00900
C 	C 	0.74241 0.34904 0.73843 -0.03300
C 	C 	0.73658 0.34868 0.70340 -0.02600
C 	C 	0.67658 0.26758 0.68005 0.00400
C 	C 	0.62473 0.18645 0.69188 -0.02500
C 	C 	0.63051 0.18669 0.72690 -0.03400
C 	C 	0.66309 0.26825 0.64415 0.05700
C 	C 	0.64997 0.26846 0.61415 -0.07900
H 	H 	0.54534 0.23642 0.84209 0.04200
H 	H 	0.54557 0.21706 0.78051 0.05800
H 	H 	0.82462 0.32322 0.80208 0.06000
H 	H 	0.82487 0.34363 0.86376 0.06000
H 	H 	0.78700 0.41233 0.75629 0.05400
H 	H 	0.77703 0.41165 0.69446 0.05300
H 	H 	0.57841 0.12344 0.67398 0.05500
H 	H 	0.58871 0.12388 0.73581 0.05100
C 	C 	0.67990 0.36160 0.12099 -0.08200
C 	C 	0.59596 0.30176 0.13027 0.01700
C 	C 	0.58952 0.30054 0.16469 -0.06100
C 	C 	0.66678 0.35949 0.19011 0.03000
C 	C 	0.74938 0.42341 0.18087 -0.06100
C 	C 	0.75595 0.42445 0.14649 0.01800
C 	C 	0.66309 0.34855 0.22601 0.00600
C 	C 	0.71276 0.32415 0.24257 -0.03500
C 	C 	0.70846 0.31237 0.27637 -0.02800
C 	C 	0.65438 0.32467 0.29389 -0.00100
C 	C 	0.60468 0.34908 0.27745 -0.02700
C 	C 	0.60896 0.36096 0.24359 -0.03500
C 	C 	0.64990 0.31194 0.32870 0.05400
C 	C 	0.64745 0.30084 0.35781 -0.09700
H 	H 	0.53661 0.25329 0.11088 0.04400
H 	H 	0.52526 0.25141 0.17155 0.05500
H 	H 	0.80909 0.47031 0.20032 0.05600
H 	H 	0.82073 0.47222 0.13969 0.04000
H 	H 	0.75422 0.31377 0.22916 0.04700
H 	H 	0.74698 0.29343 0.28890 0.05000
H 	H 	0.56273 0.35874 0.29084 0.05200
H 	H 	0.57041 0.37984 0.23106 0.05100
C 	C 	0.85870 0.74868 0.52364 -0.06900
C 	C 	0.85664 0.78317 0.49447 0.00400
C 	C 	0.79888 0.72436 0.46376 0.06000
C 	C 	0.74383 0.63157 0.46256 -0.00300
C 	C 	0.74685 0.59692 0.49163 -0.08800
C 	C 	0.80480 0.65588 0.52233 0.11500
N 	N 	0.81083 0.62159 0.55195 -0.02500
H 	H 	0.90345 0.79405 0.54723 0.07900
H 	H 	0.69902 0.58637 0.43896 0.07000
N 	N 	0.79638 0.75876 0.43373 -0.01800
O 	O 	0.83871 0.57268 0.55137 -0.12000
O 	O 	0.79560 0.64536 0.58026 -0.09700
O 	O 	0.86790 0.80400 0.42020 -0.08400
O 	O 	0.72094 0.73940 0.41855 -0.09200
C 	C 	0.88337 0.09656 0.46913 -0.06800
C 	C 	0.89722 0.06967 0.49891 0.00700
C 	C 	0.85464 0.06973 0.52607 0.05600
C 	C 	0.79068 0.08590 0.52157 -0.00500
C 	C 	0.77119 0.10539 0.49066 -0.09200
C 	C 	0.82179 0.11585 0.46506 0.11100
N 	N 	0.81310 0.14884 0.43548 -0.03000
H 	H 	0.91799 0.09937 0.44858 0.08100
H 	H 	0.75536 0.08210 0.54199 0.06900
N 	N 	0.87392 0.05012 0.55784 -0.02200
O 	O 	0.83861 0.23061 0.43850 -0.14900
O 	O 	0.78783 0.10026 0.40533 -0.11300
O 	O 	0.95701 0.09203 0.57295 -0.09800
O 	O 	0.80841 0.99227 0.57216 -0.08600
C 	C 	0.28097 0.10429 0.46643 -0.00900
C 	C 	0.33627 0.11634 0.49597 -0.09000
C 	C 	0.30361 0.10173 0.52678 0.11300
C 	C 	0.21712 0.07660 0.52778 -0.07200
C 	C 	0.16176 0.06412 0.49820 0.00400
C 	C 	0.19417 0.07833 0.46739 0.05800
N 	N 	0.13905 0.06642 0.43696 -0.02300
H 	H 	0.30620 0.11708 0.44280 0.05600
H 	H 	0.19193 0.06416 0.55143 0.07600
N 	N 	0.35906 0.11491 0.55736 -0.02500
O 	O 	0.16292 0.13494 0.42276 -0.09600
O 	O 	0.06879 0.98620 0.42207 -0.07700
O 	O 	0.38648 0.17952 0.58256 -0.09700
O 	O 	0.37366 0.05655 0.56142 -0.08700
C 	C 	0.82607 0.67170 0.00053 -0.00400
C 	C 	0.81709 0.61619 0.97187 -0.09300
C 	C 	0.83377 0.64744 0.94085 0.11500
C 	C 	0.86073 0.73397 0.93901 -0.07300
C 	C 	0.87262 0.79061 0.96796 0.00400
C 	C 	0.85431 0.75879 0.99882 0.05700
N 	N 	0.86519 0.81505 0.02857 -0.01700
H 	H 	0.81117 0.64728 0.02423 0.05600
H 	H 	0.87515 0.75820 0.91526 0.07400
N 	N 	0.82100 0.59061 0.91091 -0.02500
O 	O 	0.79601 0.79139 0.04240 -0.08700
O 	O 	0.94527 0.88566 0.04350 -0.07600
O 	O 	0.75147 0.55494 0.88675 -0.10000
O 	O 	0.88336 0.58205 0.90628 -0.08900
C 	C 	0.84521 0.14722 0.00668 -0.00500
C 	C 	0.81885 0.16851 0.97772 -0.09900
C 	C 	0.81994 0.13410 0.94513 0.11900
C 	C 	0.84933 0.08070 0.94201 -0.07500
C 	C 	0.87665 0.06044 0.97108 0.00400
C 	C 	0.87381 0.09343 0.00352 0.05800
N 	N 	0.90301 0.07500 0.03346 -0.02200
H 	H 	0.84412 0.17303 0.03179 0.03700
H 	H 	0.85203 0.05603 0.91701 0.07300
N 	N 	0.79022 0.15211 0.91514 -0.02200
O 	O 	0.97454 0.14015 0.05526 -0.08800
O 	O 	0.85538 0.99395 0.03986 -0.07200
O 	O 	0.84421 0.19120 0.89393 -0.09700
O 	O 	0.70726 0.12363 0.90781 -0.09900
C 	C 	0.19416 0.08651 0.94246 -0.07100
C 	C 	0.15886 0.09145 0.97106 0.00200
C 	C 	0.21738 0.14552 0.00231 0.06100
C 	C 	0.31054 0.19396 0.00463 -0.00400
C 	C 	0.34584 0.18848 0.97608 -0.09000
C 	C 	0.28719 0.13401 0.94486 0.11300
N 	N 	0.32184 0.12536 0.91572 -0.02500
H 	H 	0.14908 0.04398 0.91853 0.07200
H 	H 	0.35549 0.23638 0.02860 0.06600
N 	N 	0.18234 0.15132 0.03174 -0.01800
O 	O 	0.36975 0.09630 0.91732 -0.12000
O 	O 	0.30016 0.14044 0.88693 -0.10400
O 	O 	0.13243 0.08065 0.04519 -0.08200
O 	O 	0.20523 0.22854 0.04639 -0.09000
