data_crystal

_cell_length_a 30.51518
_cell_length_b 31.16290
_cell_length_c 45.01622
_cell_angle_alpha 95.53088
_cell_angle_beta  95.52975
_cell_angle_gamma 125.55593

_symmetry_space_group_name_	'P 1'
_symmetry_space_group_name_H-M	'P 1'

loop_
_symmetry_equiv_pos_as_xyz
  x,y,z

loop_
_atom_site_label
_atom_site_type_symbol
_atom_site_fract_x
_atom_site_fract_y
_atom_site_fract_z
_atom_site_charge
N 	N 	0.02558 0.04913 0.99282 -0.14100
C 	C 	0.04772 0.02209 0.98959 0.12100
N 	N 	0.99363 0.02017 0.46207 -0.13900
C 	C 	0.07978 0.02961 0.46513 -0.02200
C 	C 	0.10161 0.00394 0.45325 -0.01500
C 	C 	0.15790 0.03322 0.45357 -0.05200
C 	C 	0.19281 0.08831 0.46570 0.02700
C 	C 	0.17115 0.11426 0.47715 -0.05200
C 	C 	0.11483 0.08507 0.47686 -0.01600
C 	C 	0.25098 0.11797 0.46688 -0.01600
C 	C 	0.29964 0.14250 0.46778 -0.02500
C 	C 	0.35773 0.17164 0.46889 0.04100
C 	C 	0.39271 0.18576 0.49642 -0.07100
C 	C 	0.44924 0.21474 0.49764 0.01700
C 	C 	0.47122 0.22986 0.47125 -0.08900
C 	C 	0.43590 0.21509 0.44362 0.01600
C 	C 	0.37939 0.18613 0.44248 -0.07200
H 	H 	0.17438 0.01298 0.44455 0.04500
H 	H 	0.19795 0.15691 0.48653 0.04400
H 	H 	0.09864 0.10534 0.48624 0.04000
H 	H 	0.37618 0.17460 0.51692 0.04900
H 	H 	0.47595 0.22610 0.51915 0.03800
H 	H 	0.45218 0.22596 0.42303 0.02600
H 	H 	0.35250 0.17509 0.42109 0.04800
C 	C 	0.10358 0.04939 0.98310 -0.02500
C 	C 	0.11627 0.02099 0.96419 -0.01500
C 	C 	0.17024 0.04531 0.96018 -0.05400
C 	C 	0.21189 0.09813 0.97495 0.02600
C 	C 	0.19912 0.12724 0.99298 -0.05400
C 	C 	0.14512 0.10300 0.99704 -0.01700
C 	C 	0.26810 0.12109 0.97327 -0.01700
C 	C 	0.31515 0.14020 0.97181 -0.02500
C 	C 	0.37153 0.16285 0.97085 0.04000
C 	C 	0.40551 0.21323 0.96281 -0.07100
C 	C 	0.46178 0.23832 0.96553 0.01400
C 	C 	0.48458 0.21331 0.97663 -0.09100
C 	C 	0.44975 0.16140 0.98304 0.01600
C 	C 	0.39350 0.13643 0.98023 -0.07100
H 	H 	0.17983 0.02270 0.94607 0.04400
H 	H 	0.23116 0.16819 0.00440 0.04500
H 	H 	0.13592 0.12537 0.01168 0.04000
H 	H 	0.38862 0.23360 0.95520 0.04800
H 	H 	0.46635 0.14102 0.99104 0.03700
H 	H 	0.36728 0.09716 0.98617 0.04900
C 	C 	0.97402 0.02384 0.99876 0.11800
Cu	Cu	0.64701 0.25400 0.99885 0.92800
Cu	Cu	0.69844 0.26361 0.93698 0.87000
Cu	Cu	0.68159 0.34352 0.96271 0.89700
Cu	Cu	0.64292 0.35012 0.02049 0.89400
C 	C 	0.65517 0.28737 0.06217 0.30500
O 	O 	0.56603 0.22024 0.99536 -0.36400
C 	C 	0.66876 0.31160 0.89655 0.30700
O 	O 	0.69018 0.33780 0.00448 -0.64100
O 	O 	0.64500 0.26448 0.95629 -0.64200
O 	O 	0.68173 0.21626 0.99722 -0.37400
O 	O 	0.74642 0.27526 0.97213 -0.44100
O 	O 	0.63023 0.30884 0.05409 -0.38600
O 	O 	0.72098 0.42063 0.97184 -0.38300
C 	C 	0.71244 0.44704 0.99240 0.29100
C 	C 	0.54482 0.24308 0.98397 0.28300
O 	O 	0.57713 0.29420 0.98243 -0.39400
O 	O 	0.67476 0.42202 0.00936 -0.39500
O 	O 	0.66025 0.25779 0.04181 -0.36200
C 	C 	0.72970 0.23850 0.98915 0.29000
O 	O 	0.68605 0.35056 0.91979 -0.38900
O 	O 	0.66760 0.26946 0.90001 -0.42100
H 	H 	0.72860 0.36086 0.01565 0.16400
H 	H 	0.60797 0.24283 0.94340 0.17200
Cu	Cu	0.72925 0.33464 0.46358 0.92800
Cu	Cu	0.72834 0.29441 0.52840 0.87100
Cu	Cu	0.64070 0.30213 0.50183 0.89700
Cu	Cu	0.62561 0.33038 0.44172 0.89400
C 	C 	0.68894 0.31730 0.39988 0.30500
O 	O 	0.75967 0.41259 0.46380 -0.36200
C 	C 	0.67906 0.32366 0.56826 0.30700
O 	O 	0.64366 0.28940 0.45986 -0.64100
O 	O 	0.72188 0.34148 0.50660 -0.64200
O 	O 	0.76989 0.30255 0.46640 -0.37300
O 	O 	0.71393 0.24339 0.49483 -0.44100
O 	O 	0.66511 0.34017 0.40710 -0.38700
O 	O 	0.56150 0.25974 0.49442 -0.38300
C 	C 	0.53106 0.26214 0.47263 0.29000
C 	C 	0.73473 0.43242 0.47408 0.28200
O 	O 	0.68346 0.39972 0.47724 -0.39300
O 	O 	0.55327 0.29787 0.45467 -0.39400
O 	O 	0.72224 0.31674 0.42062 -0.36200
C 	C 	0.74891 0.25726 0.47635 0.28800
O 	O 	0.63740 0.30290 0.54548 -0.39000
O 	O 	0.72366 0.32805 0.56440 -0.42100
H 	H 	0.62120 0.25098 0.45018 0.16400
H 	H 	0.74309 0.37879 0.51801 0.17200
C 	C 	0.66133 0.34754 0.65565 -0.01000
C 	C 	0.70799 0.37540 0.67871 -0.03100
C 	C 	0.70250 0.37637 0.70919 -0.04400
C 	C 	0.65022 0.34955 0.71682 0.00800
C 	C 	0.60372 0.32417 0.69371 -0.04400
C 	C 	0.60929 0.32309 0.66320 -0.03100
C 	C 	0.64392 0.34320 0.74856 0.00800
C 	C 	0.67132 0.38861 0.77189 -0.04400
C 	C 	0.67239 0.38269 0.80231 -0.03100
C 	C 	0.64590 0.33139 0.80957 -0.01000
C 	C 	0.61606 0.28592 0.78631 -0.03100
C 	C 	0.61511 0.29176 0.75591 -0.04400
C 	C 	0.65404 0.32556 0.84055 0.04500
C 	C 	0.66028 0.31967 0.86630 -0.11100
C 	C 	0.66647 0.33915 0.62454 0.04500
C 	C 	0.67179 0.33265 0.59867 -0.11200
H 	H 	0.74838 0.39463 0.67304 0.03700
H 	H 	0.73867 0.39613 0.72682 0.04000
H 	H 	0.56323 0.30387 0.69934 0.04000
H 	H 	0.57304 0.30176 0.64548 0.03900
H 	H 	0.69319 0.42847 0.76647 0.04000
H 	H 	0.69525 0.41803 0.82019 0.03900
H 	H 	0.59524 0.24612 0.79176 0.03700
H 	H 	0.59378 0.25644 0.73811 0.04000
C 	C 	0.67242 0.27656 0.15152 -0.00700
C 	C 	0.62881 0.26265 0.16638 -0.03100
C 	C 	0.63420 0.26214 0.19749 -0.04300
C 	C 	0.68328 0.27545 0.21398 0.00900
C 	C 	0.72646 0.28804 0.19891 -0.04300
C 	C 	0.72103 0.28863 0.16776 -0.03100
C 	C 	0.69064 0.27970 0.24729 0.00900
C 	C 	0.65457 0.23517 0.26013 -0.04300
C 	C 	0.65669 0.24110 0.29155 -0.03100
C 	C 	0.69497 0.29148 0.31030 -0.00800
C 	C 	0.73271 0.33537 0.29768 -0.03000
C 	C 	0.73056 0.32955 0.26628 -0.04300
C 	C 	0.69235 0.29935 0.34194 0.04500
C 	C 	0.69088 0.30684 0.36848 -0.10400
C 	C 	0.66797 0.28065 0.11995 0.04500
C 	C 	0.66282 0.28369 0.09351 -0.10400
H 	H 	0.59107 0.25315 0.15394 0.04000
H 	H 	0.60073 0.25261 0.20892 0.04100
H 	H 	0.76442 0.29813 0.21141 0.04100
H 	H 	0.75484 0.29923 0.15638 0.03900
H 	H 	0.62396 0.19639 0.24570 0.04100
H 	H 	0.62759 0.20690 0.30117 0.03800
H 	H 	0.76260 0.37439 0.31207 0.04000
H 	H 	0.75863 0.36416 0.25662 0.04100
C 	C 	0.83704 0.76734 0.46098 -0.05300
C 	C 	0.86329 0.75546 0.48232 0.02600
C 	C 	0.91159 0.79726 0.50226 -0.05300
C 	C 	0.84277 0.70052 0.48238 -0.01600
C 	C 	0.82556 0.65452 0.48241 -0.02500
C 	C 	0.80535 0.59957 0.48205 0.04000
C 	C 	0.82605 0.57751 0.46492 -0.07100
C 	C 	0.80461 0.52344 0.46329 0.01600
C 	C 	0.76204 0.49091 0.47873 -0.09100
C 	C 	0.74266 0.51370 0.49670 0.01400
C 	C 	0.76415 0.56776 0.49825 -0.07100
H 	H 	0.79948 0.73521 0.44561 0.04500
H 	H 	0.93183 0.78839 0.51901 0.04400
H 	H 	0.85818 0.60199 0.45249 0.04900
H 	H 	0.82004 0.50657 0.44934 0.03800
H 	H 	0.71045 0.48939 0.50911 0.03100
H 	H 	0.74830 0.58470 0.51177 0.04800
C 	C 	0.76673 0.22331 0.46819 -0.09600
C 	C 	0.73149 0.16780 0.46778 0.01600
C 	C 	0.75042 0.13654 0.46378 -0.07300
C 	C 	0.80459 0.16038 0.46007 0.04100
C 	C 	0.83923 0.21532 0.45922 -0.07200
C 	C 	0.82037 0.24671 0.46320 0.01700
C 	C 	0.82549 0.12910 0.45893 -0.02600
C 	C 	0.84266 0.10264 0.45800 -0.01600
C 	C 	0.86353 0.07132 0.45738 0.02500
C 	C 	0.90199 0.08092 0.43920 -0.05200
C 	C 	0.92538 0.05345 0.44029 -0.01700
C 	C 	0.91056 0.01620 0.45970 -0.02200
C 	C 	0.87074 0.00549 0.47723 -0.01700
C 	C 	0.84739 0.03303 0.47609 -0.05300
H 	H 	0.68975 0.14903 0.47109 0.02800
H 	H 	0.72327 0.09400 0.46418 0.04800
H 	H 	0.88110 0.23398 0.45618 0.04900
H 	H 	0.84799 0.28942 0.46340 0.03200
H 	H 	0.91442 0.11024 0.42455 0.04500
H 	H 	0.95544 0.06156 0.42631 0.04000
H 	H 	0.81753 0.02529 0.49016 0.04400
C 	C 	0.74108 0.50522 0.99396 -0.09000
C 	C 	0.79385 0.53703 0.98700 0.01800
C 	C 	0.82097 0.59218 0.98860 -0.07200
C 	C 	0.79561 0.61594 0.99712 0.04100
C 	C 	0.74300 0.58439 0.00403 -0.07100
C 	C 	0.71577 0.52925 0.00246 0.01800
C 	C 	0.82364 0.67271 0.99880 -0.02600
C 	C 	0.84746 0.72029 0.00014 -0.01500
C 	C 	0.87649 0.77715 0.00161 0.02600
C 	C 	0.84960 0.79712 0.98883 -0.05300
H 	H 	0.81402 0.51916 0.98064 0.03100
H 	H 	0.86171 0.61643 0.98326 0.04800
H 	H 	0.72312 0.60252 0.01057 0.04900
H 	H 	0.67488 0.50518 0.00759 0.03200
H 	H 	0.80642 0.77004 0.97865 0.04400
H 	H 	0.95317 0.79724 0.02494 0.04400
C 	C 	0.94942 0.05284 0.00142 -0.02200
C 	C 	0.91197 0.04035 0.02099 -0.01700
C 	C 	0.88721 0.06650 0.02264 -0.05200
C 	C 	0.89973 0.10533 0.00482 0.02600
C 	C 	0.93774 0.11857 0.98570 -0.05300
C 	C 	0.96252 0.09247 0.98397 -0.01800
C 	C 	0.87183 0.12993 0.00513 -0.01600
C 	C 	0.84879 0.15085 0.00516 -0.02600
C 	C 	0.82082 0.17537 0.00445 0.04200
C 	C 	0.84653 0.22655 0.99718 -0.07500
C 	C 	0.81747 0.24813 0.99334 0.01600
C 	C 	0.76223 0.21843 0.99656 -0.09900
C 	C 	0.73732 0.16799 0.00508 0.01900
C 	C 	0.76654 0.14658 0.00894 -0.07300
H 	H 	0.90203 0.01042 0.03489 0.04100
H 	H 	0.85794 0.05619 0.03754 0.04500
H 	H 	0.94756 0.14856 0.97185 0.04300
H 	H 	0.99109 0.10236 0.96867 0.04000
H 	H 	0.88866 0.24919 0.99389 0.04700
H 	H 	0.83764 0.28751 0.98738 0.02700
H 	H 	0.69493 0.14471 0.00788 0.03600
H 	H 	0.74652 0.10708 0.01473 0.04900
H 	H 	0.48774 0.27775 0.95979 0.03200
C 	C 	0.93224 0.81241 0.01484 -0.05300
C 	C 	0.86028 0.82080 0.45874 -0.01700
H 	H 	0.84069 0.82951 0.44150 0.03900
C 	C 	0.93493 0.85065 0.50000 -0.01700
C 	C 	0.87870 0.85205 0.98862 -0.01800
C 	C 	0.91010 0.86265 0.47774 -0.02400
C 	C 	0.96140 0.86729 0.01464 -0.01600
H 	H 	0.85784 0.86693 0.97805 0.04000
H 	H 	0.97300 0.88264 0.51506 0.03900
C 	C 	0.93498 0.88732 0.00112 -0.02300
H 	H 	0.00462 0.89417 0.02475 0.03900
C 	C 	0.02076 0.99817 0.46612 0.11600
H 	H 	0.08446 0.97991 0.95290 0.03800
H 	H 	0.07500 0.96134 0.44379 0.03900
C 	C 	0.93931 0.99130 0.46310 0.11700
N 	N 	0.01833 0.96979 0.99249 -0.14200
N 	N 	0.99350 0.94722 0.47131 -0.14100
C 	C 	0.96688 0.94436 0.99849 0.11800
N 	N 	0.94471 0.97139 0.00156 -0.14100
N 	N 	0.91204 0.94005 0.46809 -0.14100
C 	C 	0.93921 0.91805 0.47227 0.11800
H 	H 	0.85899 0.97701 0.49236 0.03900
