data_crystal

_cell_length_a 22.32006
_cell_length_b 22.44531
_cell_length_c 51.31422
_cell_angle_alpha 89.97642
_cell_angle_beta  89.97615
_cell_angle_gamma 119.49016

_symmetry_space_group_name_	'P 1'
_symmetry_space_group_name_H-M	'P 1'

loop_
_symmetry_equiv_pos_as_xyz
  x,y,z

loop_
_atom_site_label
_atom_site_type_symbol
_atom_site_fract_x
_atom_site_fract_y
_atom_site_fract_z
_atom_site_charge
O 	O 	0.99828 0.13283 0.25384 -0.36100
O 	O 	0.02667 0.91601 0.30606 -0.39400
O 	O 	0.00788 0.13710 0.31089 -0.37600
O 	O 	0.98053 0.90527 0.25455 -0.38300
O 	O 	0.99163 0.01762 0.28042 -0.69600
H 	H 	0.98665 0.01294 0.26133 0.14900
H 	H 	0.03780 0.26046 0.25326 0.03500
C 	C 	0.94513 0.54525 0.43898 -0.03600
H 	H 	0.98716 0.59749 0.44004 0.04400
C 	C 	0.05604 0.51600 0.95490 -0.03200
C 	C 	0.08832 0.47060 0.00076 -0.03000
H 	H 	0.04293 0.53450 0.93750 0.03900
H 	H 	0.09999 0.45309 0.01875 0.04100
C 	C 	0.53570 0.20993 0.89469 0.28400
C 	C 	0.74851 0.49822 0.90361 0.30500
C 	C 	0.71193 0.30052 0.86617 0.30200
C 	C 	0.57100 0.40126 0.93715 0.30300
C 	C 	0.81208 0.36952 0.94111 0.33100
C 	C 	0.63725 0.26484 0.97554 0.30600
Ni	Ni	0.63107 0.36145 0.89081 1.11300
Ni	Ni	0.70115 0.40117 0.94798 1.12300
Ni	Ni	0.67687 0.26321 0.92087 1.12100
O 	O 	0.53953 0.27060 0.89301 -0.37500
O 	O 	0.59185 0.20339 0.89786 -0.37300
O 	O 	0.79421 0.41653 0.93798 -0.39300
O 	O 	0.72677 0.44785 0.88689 -0.37700
O 	O 	0.72343 0.48718 0.92736 -0.37600
O 	O 	0.62497 0.22632 0.95439 -0.38300
O 	O 	0.65964 0.31146 0.86296 -0.37000
O 	O 	0.73762 0.30410 0.88934 -0.38600
O 	O 	0.68619 0.33040 0.97590 -0.37900
O 	O 	0.59193 0.41480 0.91241 -0.36800
O 	O 	0.61055 0.39720 0.95562 -0.37700
O 	O 	0.76524 0.30411 0.94191 -0.38100
O 	O 	0.65367 0.33375 0.92204 -0.71800
H 	H 	0.60809 0.30817 0.93031 0.15900
C 	C 	0.71588 0.37265 0.51604 0.30700
C 	C 	0.62502 0.15675 0.59262 0.33500
C 	C 	0.53978 0.27291 0.54638 0.33500
C 	C 	0.79283 0.25289 0.57098 0.28900
C 	C 	0.61448 0.33266 0.62313 0.30800
C 	C 	0.79084 0.46032 0.59985 0.29200
Ni	Ni	0.65820 0.24418 0.54779 1.11400
Ni	Ni	0.72259 0.30375 0.60531 1.12200
Ni	Ni	0.66426 0.38153 0.57008 1.11900
O 	O 	0.71357 0.31296 0.51887 -0.37300
O 	O 	0.67586 0.38944 0.53005 -0.37600
O 	O 	0.63909 0.29033 0.62479 -0.38200
O 	O 	0.59753 0.18259 0.57739 -0.38600
O 	O 	0.67991 0.19876 0.60603 -0.37500
O 	O 	0.76124 0.45437 0.57689 -0.38900
O 	O 	0.57408 0.25028 0.53272 -0.37000
O 	O 	0.56554 0.30629 0.56790 -0.39700
O 	O 	0.77883 0.40584 0.61436 -0.37500
O 	O 	0.73730 0.21987 0.55559 -0.36500
O 	O 	0.80163 0.30405 0.58634 -0.38100
O 	O 	0.64393 0.38704 0.60805 -0.39200
O 	O 	0.69671 0.31802 0.57124 -0.71300
H 	H 	0.74241 0.34608 0.56328 0.16600
C 	C 	0.97901 0.87834 0.70972 0.28500
C 	C 	0.13648 0.08377 0.78861 0.30100
C 	C 	0.95040 0.88690 0.78377 0.30600
C 	C 	0.17302 0.09910 0.71852 0.28800
C 	C 	0.93138 0.07204 0.77268 0.30100
C 	C 	0.95877 0.06404 0.70003 0.31000
Ni	Ni	0.07415 0.97098 0.75101 1.10100
Ni	Ni	0.05887 0.10660 0.74532 1.11700
Ni	Ni	0.92564 0.95876 0.74035 1.11400
O 	O 	0.04455 0.91460 0.71684 -0.38700
O 	O 	0.92872 0.87605 0.72456 -0.37300
O 	O 	0.99774 0.09562 0.77570 -0.38200
O 	O 	0.09158 0.01901 0.78663 -0.37700
O 	O 	0.13726 0.12745 0.77120 -0.37400
O 	O 	0.92480 0.99723 0.70518 -0.40800
O 	O 	0.99581 0.88399 0.76840 -0.37600
O 	O 	0.92139 0.92341 0.77716 -0.38800
O 	O 	0.99225 0.11031 0.71873 -0.37800
O 	O 	0.16614 0.05140 0.73571 -0.37100
O 	O 	0.12857 0.12225 0.71719 -0.38400
O 	O 	0.89644 0.02436 0.75516 -0.37100
O 	O 	0.02345 0.01167 0.73961 -0.71200
H 	H 	0.03170 0.01223 0.72073 0.16100
C 	C 	0.28264 0.76635 0.42924 0.27700
C 	C 	0.30501 0.52787 0.46679 0.32900
C 	C 	0.43559 0.75885 0.45920 0.32600
C 	C 	0.15629 0.54539 0.43924 0.30200
C 	C 	0.42867 0.62755 0.39627 0.30400
C 	C 	0.27506 0.61753 0.36445 0.28900
Ni	Ni	0.28959 0.65344 0.46089 1.11300
Ni	Ni	0.28181 0.55468 0.41320 1.12100
Ni	Ni	0.37161 0.71635 0.40640 1.12000
O 	O 	0.29602 0.74859 0.45246 -0.36500
O 	O 	0.31253 0.76133 0.40755 -0.37500
O 	O 	0.36638 0.57649 0.39110 -0.38100
O 	O 	0.27631 0.56164 0.47676 -0.36900
O 	O 	0.33180 0.54226 0.44351 -0.39000
O 	O 	0.33553 0.67343 0.37002 -0.37700
O 	O 	0.39394 0.69689 0.46721 -0.38000
O 	O 	0.42382 0.78026 0.43688 -0.37500
O 	O 	0.23862 0.57182 0.38238 -0.39200
O 	O 	0.18474 0.59874 0.45506 -0.37500
O 	O 	0.18903 0.51126 0.43272 -0.37200
O 	O 	0.43634 0.67976 0.40999 -0.39000
O 	O 	0.30017 0.64216 0.42512 -0.71200
H 	H 	0.26028 0.64402 0.41792 0.15900
C 	C 	0.48762 0.72880 0.12480 0.28600
C 	C 	0.26907 0.66884 0.04501 0.32900
C 	C 	0.42590 0.84664 0.09635 0.32000
C 	C 	0.32577 0.56288 0.06426 0.31000
C 	C 	0.22362 0.72026 0.12495 0.30600
C 	C 	0.27048 0.58620 0.15096 0.28300
Ni	Ni	0.40071 0.71271 0.07529 1.11300
Ni	Ni	0.24477 0.61476 0.09747 1.12100
Ni	Ni	0.35786 0.73174 0.13365 1.12000
O 	O 	0.48674 0.74844 0.10027 -0.36900
O 	O 	0.43536 0.71235 0.14104 -0.38200
O 	O 	0.19804 0.65447 0.11997 -0.38200
O 	O 	0.33428 0.68607 0.04323 -0.37500
O 	O 	0.24357 0.67209 0.06750 -0.39200
O 	O 	0.29062 0.65154 0.15618 -0.38200
O 	O 	0.40314 0.80605 0.07615 -0.37700
O 	O 	0.43177 0.82319 0.11909 -0.38200
O 	O 	0.24218 0.55844 0.12823 -0.37800
O 	O 	0.38548 0.61446 0.07190 -0.38000
O 	O 	0.26511 0.55463 0.07245 -0.37500
O 	O 	0.29009 0.76202 0.12437 -0.39300
O 	O 	0.33982 0.67595 0.10363 -0.71500
H 	H 	0.35287 0.64282 0.11037 0.16000
C 	C 	0.06439 0.15580 0.24834 0.26900
C 	C 	0.86865 0.95352 0.32514 0.27700
C 	C 	0.07340 0.17675 0.30552 0.28800
C 	C 	0.85058 0.93760 0.25405 0.26300
C 	C 	0.06972 0.96202 0.32243 0.28200
C 	C 	0.04587 0.93708 0.24692 0.27000
Ni	Ni	0.94221 0.06556 0.28419 1.11300
Ni	Ni	0.94918 0.92257 0.28889 1.11600
Ni	Ni	0.08987 0.06259 0.28151 1.11900
O 	O 	0.09120 0.11442 0.24885 -0.37900
O 	O 	0.87131 0.00726 0.31343 -0.34200
O 	O 	0.92073 0.94216 0.32363 -0.38700
O 	O 	0.09558 0.98708 0.26104 -0.38600
O 	O 	0.11364 0.14996 0.30176 -0.37300
O 	O 	0.86911 0.00292 0.25707 -0.34900
O 	O 	0.85709 0.90256 0.27348 -0.38700
O 	O 	0.10048 0.02734 0.31632 -0.36300
C 	C 	0.26542 0.54019 0.17223 -0.06700
C 	C 	0.22847 0.53606 0.19489 0.00500
C 	C 	0.20575 0.47945 0.21143 -0.05200
C 	C 	0.21679 0.42461 0.20458 0.00600
C 	C 	0.26356 0.43448 0.18423 0.01000
C 	C 	0.28711 0.49202 0.16798 -0.01700
C 	C 	0.28400 0.38551 0.17971 -0.04000
C 	C 	0.25463 0.32460 0.19390 -0.04000
C 	C 	0.20130 0.30980 0.21169 0.01100
C 	C 	0.18111 0.35951 0.21700 0.00500
C 	C 	0.12134 0.34033 0.23204 -0.04900
C 	C 	0.08407 0.27426 0.24213 0.00200
C 	C 	0.10521 0.22574 0.23756 -0.06400
C 	C 	0.16469 0.24411 0.22277 -0.02100
H 	H 	0.21503 0.57530 0.19916 0.03800
H 	H 	0.18142 0.47941 0.22966 0.04300
H 	H 	0.31898 0.49733 0.15119 0.04100
H 	H 	0.32210 0.39420 0.16489 0.04100
H 	H 	0.27094 0.28724 0.19007 0.04100
H 	H 	0.10090 0.37466 0.23468 0.04300
H 	H 	0.18086 0.20661 0.21894 0.04700
C 	C 	0.80688 0.90024 0.23155 -0.06200
C 	C 	0.81063 0.93560 0.20854 -0.00200
C 	C 	0.76587 0.90220 0.18788 -0.04900
C 	C 	0.71763 0.83155 0.18951 0.00400
C 	C 	0.71396 0.79584 0.21284 0.01100
C 	C 	0.75971 0.82997 0.23338 -0.02100
C 	C 	0.66159 0.72779 0.21611 -0.04100
C 	C 	0.60937 0.69682 0.19765 -0.04000
C 	C 	0.61063 0.73208 0.17495 0.01000
C 	C 	0.66793 0.79710 0.16960 0.00600
C 	C 	0.67262 0.82657 0.14483 -0.05200
C 	C 	0.61506 0.80005 0.12852 0.00400
C 	C 	0.55367 0.74200 0.13615 -0.06700
C 	C 	0.55374 0.70475 0.15811 -0.01800
H 	H 	0.84724 0.98974 0.20687 0.03800
H 	H 	0.76650 0.93250 0.17143 0.04100
H 	H 	0.75639 0.80251 0.25121 0.04500
H 	H 	0.65939 0.69993 0.23368 0.03900
H 	H 	0.56707 0.64571 0.20128 0.04000
H 	H 	0.72058 0.86860 0.13788 0.04200
H 	H 	0.61730 0.82647 0.11057 0.04000
H 	H 	0.50783 0.65714 0.16304 0.04300
C 	C 	0.17900 0.74532 0.13583 -0.07600
C 	C 	0.19435 0.81289 0.13087 0.00800
C 	C 	0.16661 0.84417 0.14657 -0.05600
C 	C 	0.12487 0.80871 0.16811 0.01200
C 	C 	0.10112 0.73764 0.17051 0.00300
C 	C 	0.12918 0.70654 0.15460 -0.01400
C 	C 	0.05057 0.69879 0.18899 -0.03300
C 	C 	0.02530 0.73013 0.20576 -0.05600
C 	C 	0.05328 0.80148 0.20549 0.02300
C 	C 	0.10506 0.84191 0.18717 -0.00700
C 	C 	0.13974 0.91403 0.18982 -0.03500
C 	C 	0.11955 0.94487 0.20901 -0.03300
C 	C 	0.06582 0.90469 0.22619 -0.04800
C 	C 	0.03261 0.83307 0.22430 -0.03600
H 	H 	0.22955 0.84192 0.11531 0.03800
H 	H 	0.17606 0.89476 0.14141 0.04200
H 	H 	0.11500 0.65340 0.15776 0.04600
H 	H 	0.03064 0.64403 0.19036 0.03700
H 	H 	0.98561 0.69906 0.21972 0.04900
H 	H 	0.18457 0.94622 0.17819 0.03500
H 	H 	0.14647 0.00014 0.21073 0.05900
H 	H 	0.99245 0.80190 0.23811 0.05300
C 	C 	0.48919 0.63412 0.38231 -0.07500
C 	C 	0.49423 0.64641 0.35540 0.00400
C 	C 	0.55787 0.69190 0.34419 -0.05400
C 	C 	0.61706 0.72488 0.36005 0.00600
C 	C 	0.61408 0.69963 0.38554 0.00900
C 	C 	0.54985 0.65379 0.39654 -0.01300
C 	C 	0.67457 0.72321 0.40019 -0.03900
C 	C 	0.73722 0.77454 0.39033 -0.04100
C 	C 	0.73964 0.80616 0.36643 0.01000
C 	C 	0.67894 0.78288 0.35134 0.00400
C 	C 	0.67998 0.82201 0.32958 -0.05100
C 	C 	0.74135 0.87942 0.32183 0.00200
C 	C 	0.80250 0.89940 0.33569 -0.07000
C 	C 	0.80147 0.86284 0.35803 -0.02100
H 	H 	0.44831 0.62535 0.34360 0.03500
H 	H 	0.56089 0.70034 0.32337 0.04200
H 	H 	0.54649 0.63985 0.41695 0.04500
H 	H 	0.67304 0.70222 0.41936 0.04200
H 	H 	0.78353 0.79183 0.40187 0.04000
H 	H 	0.63320 0.81022 0.31928 0.04200
H 	H 	0.74153 0.90774 0.30469 0.04000
H 	H 	0.84850 0.87894 0.36901 0.04400
C 	C 	0.10523 0.25244 0.30805 -0.06900
C 	C 	0.17721 0.29374 0.30718 0.00300
C 	C 	0.20798 0.36506 0.30788 -0.05000
C 	C 	0.16719 0.39712 0.30913 0.00300
C 	C 	0.09444 0.35550 0.31018 0.01300
C 	C 	0.06400 0.28363 0.30923 -0.02200
C 	C 	0.05302 0.38586 0.31376 -0.05200
C 	C 	0.08286 0.45567 0.31925 -0.03600
C 	C 	0.15462 0.49674 0.32013 0.00800
C 	C 	0.19707 0.46943 0.31243 0.00600
C 	C 	0.26874 0.51472 0.31046 -0.05200
C 	C 	0.29766 0.57900 0.32257 0.00400
C 	C 	0.25559 0.59653 0.33719 -0.07000
C 	C 	0.18494 0.56256 0.33128 -0.01500
H 	H 	0.20978 0.27059 0.30621 0.04200
H 	H 	0.26344 0.39456 0.30863 0.04300
H 	H 	0.00840 0.25220 0.30951 0.03800
H 	H 	0.99743 0.35460 0.31374 0.04900
H 	H 	0.05005 0.47722 0.32385 0.03800
H 	H 	0.30156 0.50131 0.29936 0.04200
H 	H 	0.35283 0.61176 0.32273 0.03500
H 	H 	0.15249 0.58107 0.33962 0.04000
C 	C 	0.09308 0.93935 0.34552 -0.06700
C 	C 	0.05376 0.87209 0.35473 0.00700
C 	C 	0.07939 0.84710 0.37415 -0.06000
C 	C 	0.14454 0.89000 0.38546 0.02400
C 	C 	0.18350 0.95862 0.37655 -0.02800
C 	C 	0.15668 0.98325 0.35721 -0.02800
C 	C 	0.25094 0.00030 0.38557 0.03000
C 	C 	0.28266 0.97295 0.40112 -0.11200
C 	C 	0.24629 0.90441 0.40907 0.04100
C 	C 	0.17527 0.86434 0.40338 -0.01500
C 	C 	0.13796 0.79884 0.41492 -0.04000
C 	C 	0.17313 0.76859 0.42654 -0.00900
C 	C 	0.24512 0.80452 0.42796 -0.05700
C 	C 	0.28088 0.87412 0.42135 -0.03200
H 	H 	0.00398 0.83813 0.34620 0.03300
H 	H 	0.05004 0.79349 0.37909 0.04300
H 	H 	0.18702 0.03551 0.35032 0.06200
H 	H 	0.28023 0.05320 0.37933 0.02800
H 	H 	0.33621 0.00478 0.40650 0.07300
H 	H 	0.08237 0.77194 0.41550 0.03700
H 	H 	0.14467 0.71595 0.43314 0.03500
H 	H 	0.33634 0.90297 0.42375 0.04500
C 	C 	0.54705 0.88746 0.51797 -0.00800
C 	C 	0.51395 0.87172 0.54227 -0.03600
C 	C 	0.53969 0.91953 0.56254 -0.02900
C 	C 	0.59854 0.98326 0.55857 -0.02900
C 	C 	0.63552 0.99580 0.53515 -0.05700
C 	C 	0.60953 0.94822 0.51483 -0.02800
C 	C 	0.51268 0.84519 0.49573 0.04900
C 	C 	0.47996 0.80773 0.47811 -0.10900
C 	C 	0.60947 0.04053 0.57450 0.07700
C 	C 	0.61718 0.09190 0.58495 -0.12800
H 	H 	0.46625 0.82412 0.54501 0.04000
H 	H 	0.51107 0.90895 0.58061 0.03400
H 	H 	0.68125 0.04477 0.53189 0.05700
H 	H 	0.63611 0.96026 0.49626 0.03600
C 	C 	0.83030 0.45981 0.45209 -0.00400
C 	C 	0.88196 0.52843 0.45052 -0.03100
C 	C 	0.95690 0.49322 0.42951 0.00800
C 	C 	0.90132 0.42685 0.42687 -0.03600
C 	C 	0.83748 0.41049 0.43768 -0.02900
C 	C 	0.78509 0.43731 0.47428 0.04900
C 	C 	0.75116 0.41205 0.49355 -0.09700
C 	C 	0.02597 0.50396 0.42993 0.03400
C 	C 	0.08514 0.51847 0.43291 -0.09600
H 	H 	0.87600 0.56760 0.46062 0.04100
H 	H 	0.90904 0.38667 0.41864 0.04700
H 	H 	0.79648 0.35768 0.43770 0.04500
C 	C 	0.32223 0.37420 0.50134 -0.00500
C 	C 	0.33176 0.37041 0.52813 -0.03300
C 	C 	0.36196 0.33263 0.53725 -0.03200
C 	C 	0.38365 0.29940 0.51956 -0.00600
C 	C 	0.36733 0.29723 0.49311 -0.03100
C 	C 	0.33636 0.33432 0.48403 -0.03200
C 	C 	0.31166 0.42810 0.49121 0.05200
C 	C 	0.30674 0.47402 0.48116 -0.10800
C 	C 	0.43529 0.28255 0.52754 0.05400
C 	C 	0.48175 0.27452 0.53528 -0.11200
H 	H 	0.31992 0.40014 0.54171 0.04100
H 	H 	0.37332 0.33358 0.55783 0.04000
H 	H 	0.38291 0.27082 0.47934 0.04500
H 	H 	0.32793 0.33597 0.46330 0.04300
C 	C 	0.94510 0.08745 0.67491 -0.08200
C 	C 	0.88468 0.04493 0.66104 0.04100
C 	C 	0.86840 0.06812 0.63836 -0.06200
C 	C 	0.91324 0.13442 0.62866 0.00800
C 	C 	0.97441 0.17743 0.64270 0.02000
C 	C 	0.99083 0.15291 0.66528 -0.00400
C 	C 	0.01574 0.24601 0.63516 -0.06600
C 	C 	0.99365 0.27418 0.61570 -0.01200
C 	C 	0.93166 0.23331 0.60253 0.00100
C 	C 	0.89479 0.16194 0.60707 0.01200
C 	C 	0.83828 0.12091 0.59079 -0.05100
C 	C 	0.80911 0.15138 0.57540 0.00900
C 	C 	0.83772 0.22277 0.57532 -0.06800
C 	C 	0.90327 0.26338 0.58628 -0.01200
H 	H 	0.84866 0.99450 0.66840 0.01600
H 	H 	0.81892 0.03582 0.62947 0.05200
H 	H 	0.03797 0.18558 0.67580 0.03400
H 	H 	0.06330 0.27862 0.64541 0.04400
H 	H 	0.02387 0.32835 0.61137 0.02800
H 	H 	0.81753 0.06615 0.58969 0.04800
H 	H 	0.76198 0.11938 0.56492 0.04100
H 	H 	0.92867 0.31863 0.58431 0.04600
C 	C 	0.55612 0.32102 0.63972 -0.07300
C 	C 	0.49851 0.32076 0.62874 0.00900
C 	C 	0.43605 0.29144 0.64228 -0.05100
C 	C 	0.43010 0.25955 0.66664 0.00800
C 	C 	0.49078 0.26921 0.67916 0.00900
C 	C 	0.55329 0.29923 0.66550 -0.01000
C 	C 	0.48813 0.24760 0.70496 -0.03800
C 	C 	0.42550 0.21397 0.71812 -0.03900
C 	C 	0.36395 0.19790 0.70525 0.01000
C 	C 	0.36535 0.21888 0.67907 0.00600
C 	C 	0.30242 0.19424 0.66548 -0.05000
C 	C 	0.23983 0.15500 0.67840 0.00400
C 	C 	0.23883 0.13733 0.70464 -0.06800
C 	C 	0.30083 0.15877 0.71798 -0.01600
H 	H 	0.50142 0.34113 0.60935 0.03800
H 	H 	0.39359 0.29558 0.63414 0.04300
H 	H 	0.59900 0.30291 0.67449 0.04300
H 	H 	0.53480 0.25681 0.71487 0.04100
H 	H 	0.42456 0.19814 0.73815 0.04000
H 	H 	0.30146 0.20213 0.64475 0.04500
H 	H 	0.19200 0.13723 0.66783 0.03700
H 	H 	0.29999 0.14522 0.73830 0.04400
C 	C 	0.96072 0.82580 0.68935 -0.05000
C 	C 	0.00160 0.79497 0.68551 -0.02500
C 	C 	0.98078 0.74032 0.66819 -0.02300
C 	C 	0.91686 0.71355 0.65529 -0.00700
C 	C 	0.87993 0.74981 0.65684 0.01900
C 	C 	0.90116 0.80468 0.67435 -0.02800
C 	C 	0.82275 0.73133 0.64074 -0.04500
C 	C 	0.80060 0.67604 0.62373 -0.03600
C 	C 	0.83225 0.63533 0.62378 0.00500
C 	C 	0.88952 0.65243 0.64021 0.01300
C 	C 	0.91388 0.60525 0.64290 -0.05400
C 	C 	0.88433 0.54461 0.62846 0.00800
C 	C 	0.82902 0.52888 0.61167 -0.06900
C 	C 	0.80426 0.57513 0.60890 -0.01200
H 	H 	0.04940 0.81297 0.69611 0.04200
H 	H 	0.01579 0.72122 0.66411 0.02800
H 	H 	0.87136 0.83073 0.67634 0.04100
H 	H 	0.79560 0.76022 0.64126 0.03900
H 	H 	0.75681 0.66313 0.61119 0.03800
H 	H 	0.95222 0.61277 0.65732 0.04500
H 	H 	0.90294 0.50860 0.63106 0.03800
H 	H 	0.76036 0.56219 0.59637 0.03700
C 	C 	0.13019 0.53822 0.99234 -0.00800
C 	C 	0.11554 0.55989 0.96879 -0.03400
C 	C 	0.01059 0.45058 0.96467 -0.01200
C 	C 	0.02855 0.42689 0.98698 -0.04100
C 	C 	0.18168 0.58723 0.00959 0.05300
C 	C 	0.22264 0.62631 0.02512 -0.11700
C 	C 	0.94057 0.41546 0.95558 0.06200
C 	C 	0.88157 0.39101 0.94865 -0.10800
H 	H 	0.14821 0.61176 0.96194 0.04000
H 	H 	0.99412 0.37620 0.99455 0.05200
C 	C 	0.56353 0.15907 0.04331 -0.00600
C 	C 	0.60732 0.14400 0.05802 -0.02500
C 	C 	0.57961 0.08844 0.07521 -0.04200
C 	C 	0.50806 0.04777 0.07770 0.02700
C 	C 	0.46490 0.06816 0.06546 -0.04200
C 	C 	0.49258 0.12360 0.04821 -0.02600
C 	C 	0.58922 0.19973 0.02005 0.04900
C 	C 	0.61086 0.23079 0.99994 -0.09600
C 	C 	0.47949 0.97845 0.08680 0.01700
C 	C 	0.45525 0.91883 0.09234 -0.09500
H 	H 	0.66242 0.17211 0.05475 0.04400
H 	H 	0.61350 0.07388 0.08499 0.05100
H 	H 	0.40954 0.03781 0.06766 0.05100
H 	H 	0.45843 0.13580 0.03731 0.04200
C 	C 	0.34343 0.45550 0.00377 -0.00300
C 	C 	0.36726 0.49137 0.98023 -0.03300
C 	C 	0.40076 0.47141 0.96209 -0.03400
C 	C 	0.41007 0.41525 0.96736 -0.00300
C 	C 	0.37862 0.37453 0.98934 -0.03300
C 	C 	0.34564 0.39482 0.00760 -0.03300
C 	C 	0.33159 0.48852 0.02564 0.04700
C 	C 	0.32646 0.52009 0.04367 -0.10000
C 	C 	0.46389 0.40931 0.95424 0.04500
C 	C 	0.51172 0.40548 0.94521 -0.09800
H 	H 	0.36450 0.53763 0.97687 0.04200
H 	H 	0.42379 0.50252 0.94491 0.04100
H 	H 	0.38441 0.33021 0.99333 0.04300
H 	H 	0.32620 0.36601 0.02551 0.04300
C 	C 	0.73730 0.27672 0.84432 -0.07500
C 	C 	0.80639 0.31544 0.83674 0.00900
C 	C 	0.83811 0.28503 0.82277 -0.05200
C 	C 	0.80163 0.21420 0.81729 0.00700
C 	C 	0.72965 0.17784 0.82168 0.00900
C 	C 	0.69797 0.20918 0.83542 -0.01600
C 	C 	0.69041 0.11035 0.81275 -0.03900
C 	C 	0.72211 0.07795 0.80022 -0.03900
C 	C 	0.79403 0.11099 0.79772 0.01100
C 	C 	0.83480 0.17870 0.80712 0.00600
C 	C 	0.90706 0.20701 0.80801 -0.05000
C 	C 	0.93812 0.17175 0.79718 0.00500
C 	C 	0.89791 0.10674 0.78604 -0.06700
C 	C 	0.82578 0.07605 0.78675 -0.01400
H 	H 	0.83632 0.36862 0.84251 0.03700
H 	H 	0.89004 0.31702 0.81577 0.04400
H 	H 	0.64391 0.17983 0.84056 0.04100
H 	H 	0.63507 0.08288 0.81545 0.04100
H 	H 	0.69072 0.02611 0.79313 0.04300
H 	H 	0.93923 0.25453 0.81808 0.04500
H 	H 	0.99369 0.19518 0.79753 0.03900
H 	H 	0.79438 0.02482 0.77905 0.04800
C 	C 	0.47217 0.15152 0.88501 -0.06500
C 	C 	0.41000 0.13630 0.89725 0.00400
C 	C 	0.35082 0.11729 0.88234 -0.04800
C 	C 	0.35390 0.11354 0.85496 0.00600
C 	C 	0.41175 0.11328 0.84374 0.01100
C 	C 	0.47047 0.13128 0.85904 -0.01600
C 	C 	0.41175 0.09895 0.81717 -0.04000
C 	C 	0.35652 0.08845 0.80138 -0.04100
C 	C 	0.30213 0.09575 0.81160 0.00900
C 	C 	0.30129 0.11058 0.83839 0.00700
C 	C 	0.25151 0.12748 0.84736 -0.05100
C 	C 	0.19983 0.12271 0.83057 0.00700
C 	C 	0.19799 0.10297 0.80457 -0.07400
C 	C 	0.24939 0.08999 0.79513 -0.01900
H 	H 	0.40931 0.14610 0.91789 0.03500
H 	H 	0.30322 0.10511 0.89213 0.04500
H 	H 	0.51724 0.13786 0.84996 0.04300
H 	H 	0.45498 0.09661 0.80864 0.04000
H 	H 	0.35729 0.07712 0.78089 0.03900
H 	H 	0.25393 0.14672 0.86685 0.04500
H 	H 	0.16061 0.13342 0.83792 0.03400
H 	H 	0.24718 0.07336 0.77519 0.03900
C 	C 	0.92938 0.84602 0.80789 -0.08000
C 	C 	0.97490 0.82868 0.82014 0.02200
C 	C 	0.95217 0.78153 0.84056 -0.06000
C 	C 	0.88244 0.74869 0.84820 0.01100
C 	C 	0.83979 0.77402 0.83861 0.00400
C 	C 	0.86300 0.82160 0.81809 -0.01100
C 	C 	0.77423 0.75072 0.84934 -0.03800
C 	C 	0.74904 0.69947 0.86827 -0.04200
C 	C 	0.78691 0.66731 0.87541 0.01000
C 	C 	0.85383 0.69093 0.86506 0.00400
C 	C 	0.88678 0.65170 0.86932 -0.05100
C 	C 	0.85418 0.59128 0.88378 0.00700
C 	C 	0.78835 0.56845 0.89400 -0.07300
C 	C 	0.75611 0.60796 0.89080 -0.01600
H 	H 	0.02799 0.85169 0.81378 0.02100
H 	H 	0.98934 0.77284 0.85093 0.04500
H 	H 	0.82884 0.83777 0.80958 0.04000
H 	H 	0.74248 0.77204 0.84289 0.03700
H 	H 	0.69822 0.68211 0.87637 0.04000
H 	H 	0.93495 0.66462 0.85989 0.04400
H 	H 	0.87880 0.56027 0.88593 0.03800
H 	H 	0.70468 0.58955 0.89853 0.04500
