data_crystal

_cell_length_a 21.09526
_cell_length_b 18.30862
_cell_length_c 46.90881
_cell_angle_alpha 90.69117
_cell_angle_beta  91.47384
_cell_angle_gamma 110.98127

_symmetry_space_group_name_	'P 1'
_symmetry_space_group_name_H-M	'P 1'

loop_
_symmetry_equiv_pos_as_xyz
  x,y,z

loop_
_atom_site_label
_atom_site_type_symbol
_atom_site_fract_x
_atom_site_fract_y
_atom_site_fract_z
_atom_site_charge
O 	O 	0.03277 0.86133 0.70269 -0.72100
Ni	Ni	0.07667 0.92706 0.66990 1.09600
O 	O 	0.09160 0.97073 0.75120 -0.37000
O 	O 	0.07801 0.10982 0.74566 -0.39200
O 	O 	0.10199 0.84267 0.64948 -0.36500
O 	O 	0.04201 0.00376 0.69137 -0.69800
O 	O 	0.13733 0.00856 0.64301 -0.35700
O 	O 	0.15867 0.12514 0.66641 -0.39300
Ni	Ni	0.11217 0.10099 0.70559 1.07100
H 	H 	0.06423 0.84152 0.71333 0.16000
O 	O 	0.16944 0.03888 0.71897 -0.42200
C 	C 	0.05419 0.77392 0.64319 0.25900
C 	C 	0.15456 0.99709 0.74211 0.28100
C 	C 	0.18053 0.07696 0.65212 0.30200
C 	C 	0.01308 0.08780 0.75169 0.26300
O 	O 	0.18506 0.66565 0.36874 -0.34900
O 	O 	0.25041 0.55637 0.38226 -0.39500
O 	O 	0.21200 0.57711 0.46560 -0.34000
O 	O 	0.15897 0.58829 0.42279 -0.32800
C 	C 	0.19777 0.73333 0.35633 0.27600
C 	C 	0.15635 0.56451 0.44952 0.29700
O 	O 	0.10851 0.62444 0.00020 -0.35800
O 	O 	0.17246 0.73719 0.04607 -0.35400
C 	C 	0.16230 0.52233 0.03745 0.33200
C 	C 	0.08825 0.56702 0.98053 0.31500
C 	C 	0.20259 0.81272 0.05140 0.29300
O 	O 	0.20033 0.59503 0.04291 -0.39200
O 	O 	0.13208 0.55413 0.96338 -0.35500
O 	O 	0.09123 0.14480 0.24976 -0.40400
Ni	Ni	0.05521 0.17235 0.21098 1.06300
O 	O 	0.07839 0.08390 0.19200 -0.40800
C 	C 	0.05349 0.05587 0.16654 0.27000
C 	C 	0.05726 0.13585 0.27355 0.25000
O 	O 	0.03802 0.21337 0.17201 -0.41100
C 	C 	0.04604 0.39251 0.10005 0.00200
C 	C 	0.06217 0.41450 0.12879 -0.03500
C 	C 	0.12181 0.47733 0.05969 -0.04600
C 	C 	0.08707 0.43921 0.07814 0.07500
C 	C 	0.13580 0.93168 0.11017 0.02000
C 	C 	0.12742 0.91080 0.13887 -0.05500
C 	C 	0.10461 0.95467 0.15798 0.01000
C 	C 	0.17683 0.85044 0.07273 -0.08800
C 	C 	0.10095 0.04176 0.11989 0.01800
C 	C 	0.12379 0.99808 0.10089 -0.04900
C 	C 	0.15749 0.88585 0.09019 0.04600
C 	C 	0.08990 0.01936 0.14837 -0.08000
H 	H 	0.13747 0.86005 0.14628 0.04900
H 	H 	0.09590 0.93663 0.17989 0.02500
H 	H 	0.09006 0.09184 0.11231 0.05100
H 	H 	0.13118 0.01522 0.07883 0.06800
C 	C 	0.15058 0.29547 0.34266 0.02000
C 	C 	0.19097 0.27396 0.32348 -0.04300
C 	C 	0.16062 0.21870 0.30172 0.00700
C 	C 	0.20617 0.41873 0.37704 -0.08000
C 	C 	0.04927 0.20310 0.31916 -0.01200
C 	C 	0.07978 0.25846 0.34092 -0.03400
C 	C 	0.18106 0.36165 0.36177 0.06500
C 	C 	0.08947 0.18469 0.29892 -0.06200
H 	H 	0.24578 0.30188 0.32485 0.06300
H 	H 	0.19235 0.20373 0.28666 0.04800
H 	H 	0.04824 0.27455 0.35578 0.07500
C 	C 	0.06546 0.75668 0.28954 0.04500
C 	C 	0.13472 0.80293 0.28991 -0.06300
C 	C 	0.17830 0.79437 0.31145 0.02100
C 	C 	0.08449 0.68895 0.33107 0.03500
C 	C 	0.04094 0.69795 0.30960 -0.08200
C 	C 	0.01847 0.78081 0.27307 0.00500
C 	C 	0.15295 0.73890 0.33262 -0.07500
H 	H 	0.15412 0.84828 0.27437 0.05400
H 	H 	0.06445 0.64515 0.34708 0.05900
C 	C 	0.06531 0.43697 0.45803 0.01900
C 	C 	0.08944 0.51883 0.46094 0.02600
C 	C 	0.04615 0.55646 0.47102 -0.12100
C 	C 	0.07236 0.64450 0.47596 0.78500
H 	H 	0.09957 0.40869 0.45104 0.09000
F 	F 	0.02676 0.66812 0.49073 -0.45000
F 	F 	0.08309 0.68122 0.44999 -0.43700
F 	F 	0.13286 0.66819 0.49177 -0.43900
H 	H 	0.05169 0.62494 0.64756 0.02000
C 	C 	0.01493 0.53291 0.97235 -0.05500
C 	C 	0.01091 0.39498 0.98399 0.74800
H 	H 	0.00946 0.64565 0.96387 0.05700
F 	F 	0.02556 0.41174 0.01267 -0.45800
F 	F 	0.06961 0.40197 0.97004 -0.46200
C 	C 	0.21069 0.99821 0.76185 -0.08000
H 	H 	0.28557 0.02123 0.72914 0.03800
Ni	Ni	0.56225 0.26640 0.89663 1.11200
Ni	Ni	0.62365 0.14505 0.86863 1.07200
O 	O 	0.62124 0.12952 0.91159 -0.38100
O 	O 	0.48148 0.20484 0.87070 -0.32200
O 	O 	0.50218 0.31028 0.92001 -0.29600
O 	O 	0.57821 0.43473 0.91587 -0.36300
C 	C 	0.56561 0.12020 0.92529 0.30800
C 	C 	0.48149 0.14213 0.85633 0.28600
C 	C 	0.51883 0.38629 0.92382 0.28900
O 	O 	0.53520 0.17151 0.92310 -0.31200
O 	O 	0.51935 0.10204 0.86535 -0.38500
Ni	Ni	0.62627 0.30672 0.51342 1.10200
O 	O 	0.58585 0.36565 0.48580 -0.33900
O 	O 	0.56870 0.20513 0.49063 -0.33800
O 	O 	0.54267 0.16357 0.54907 -0.34200
O 	O 	0.54621 0.28730 0.53945 -0.35800
Ni	Ni	0.63954 0.16301 0.54824 1.10000
C 	C 	0.61933 0.43914 0.47993 0.29400
C 	C 	0.57848 0.13787 0.49147 0.29200
C 	C 	0.52697 0.22527 0.55574 0.26700
Ni	Ni	0.24522 0.65422 0.40194 1.10800
O 	O 	0.33058 0.71114 0.37971 -0.70200
Ni	Ni	0.40299 0.70762 0.40706 1.10500
O 	O 	0.24187 0.79806 0.36820 -0.35800
Ni	Ni	0.34590 0.81927 0.37116 1.09000
O 	O 	0.34890 0.85279 0.41302 -0.32900
O 	O 	0.48186 0.75240 0.38049 -0.35800
O 	O 	0.31877 0.66782 0.43153 -0.69500
O 	O 	0.46331 0.67259 0.43460 -0.32900
O 	O 	0.38334 0.54949 0.43545 -0.35900
Ni	Ni	0.29776 0.56723 0.45021 1.10700
H 	H 	0.33211 0.68226 0.36192 0.16000
H 	H 	0.31847 0.70824 0.44567 0.19400
C 	C 	0.40391 0.86490 0.42893 0.28900
O 	O 	0.23649 0.48286 0.42224 -0.37100
C 	C 	0.48630 0.81349 0.36470 0.26700
C 	C 	0.23504 0.48846 0.39439 0.32800
C 	C 	0.44488 0.59902 0.44204 0.29100
O 	O 	0.43637 0.81530 0.42802 -0.33600
O 	O 	0.45005 0.85766 0.37064 -0.34600
Ni	Ni	0.35639 0.68842 0.00439 1.11100
O 	O 	0.26120 0.65084 0.98562 -0.69900
Ni	Ni	0.20773 0.68197 0.01516 1.10300
O 	O 	0.39134 0.61922 0.97921 -0.29700
O 	O 	0.30143 0.50978 0.98966 -0.35100
O 	O 	0.39432 0.77469 0.97450 -0.30200
Ni	Ni	0.21754 0.53822 0.97774 1.09600
O 	O 	0.44291 0.85523 0.02997 -0.38400
O 	O 	0.16966 0.48609 0.01409 -0.31700
O 	O 	0.30538 0.73114 0.03145 -0.69500
O 	O 	0.44810 0.73253 0.02541 -0.31200
O 	O 	0.24888 0.85607 0.03433 -0.38900
Ni	Ni	0.34314 0.84503 0.03162 1.07500
H 	H 	0.26098 0.67987 0.96797 0.19200
H 	H 	0.30967 0.71272 0.05091 0.16500
O 	O 	0.33380 0.84818 0.98872 -0.39200
C 	C 	0.36060 0.54285 0.97794 0.28400
C 	C 	0.38100 0.83956 0.97309 0.31200
C 	C 	0.46641 0.80109 0.03881 0.28900
C 	C 	0.52418 0.82385 0.05806 -0.05900
C 	C 	0.61469 0.86305 0.12443 -0.04900
C 	C 	0.57187 0.84340 0.07475 0.05800
H 	H 	0.56291 0.84123 0.13157 0.05400
C 	C 	0.60731 0.83812 0.35346 0.02100
C 	C 	0.53954 0.88703 0.32179 0.01400
C 	C 	0.59528 0.91843 0.30437 -0.04400
C 	C 	0.54498 0.84574 0.34623 -0.05700
H 	H 	0.61270 0.80781 0.37254 0.07300
H 	H 	0.49187 0.89373 0.31606 0.03700
H 	H 	0.58997 0.94815 0.28512 0.05700
H 	H 	0.23142 0.83179 0.31198 0.02600
C 	C 	0.49655 0.07636 0.45114 0.05500
C 	C 	0.52866 0.06678 0.47670 0.01000
C 	C 	0.50916 0.99069 0.48873 -0.08600
C 	C 	0.45872 0.92733 0.47452 0.05300
C 	C 	0.43208 0.93585 0.44768 0.01900
C 	C 	0.44688 0.01210 0.43688 -0.09300
C 	C 	0.40852 0.02579 0.41087 0.78000
H 	H 	0.51079 0.13414 0.44223 0.09600
H 	H 	0.44400 0.86928 0.48324 0.09800
C 	C 	0.54518 0.97462 0.51517 0.78200
F 	F 	0.42440 0.10475 0.40609 -0.42900
F 	F 	0.33933 0.99330 0.41482 -0.43200
F 	F 	0.42473 0.99243 0.38689 -0.47600
F 	F 	0.54340 0.02310 0.53762 -0.50200
F 	F 	0.51464 0.89847 0.52408 -0.42200
C 	C 	0.53510 0.50070 0.48995 0.06100
C 	C 	0.58100 0.48857 0.47108 0.00900
C 	C 	0.58710 0.52009 0.44344 -0.09100
C 	C 	0.54450 0.56047 0.43485 0.05800
C 	C 	0.49630 0.56910 0.45329 0.01000
C 	C 	0.49392 0.54286 0.48161 -0.09300
C 	C 	0.44543 0.55673 0.50253 0.77800
H 	H 	0.53086 0.47614 0.51104 0.07900
H 	H 	0.54701 0.58292 0.41348 0.08100
C 	C 	0.63786 0.50926 0.42297 0.77700
F 	F 	0.46114 0.54261 0.53027 -0.43400
F 	F 	0.37981 0.50746 0.49559 -0.47800
F 	F 	0.44887 0.63357 0.50154 -0.44200
F 	F 	0.62508 0.43034 0.41856 -0.45300
C 	C 	0.35655 0.16940 0.60929 0.02200
C 	C 	0.41364 0.15218 0.61783 -0.04400
C 	C 	0.47115 0.17489 0.60115 0.01500
C 	C 	0.24263 0.11014 0.63725 -0.08500
C 	C 	0.41603 0.23580 0.56800 0.02300
C 	C 	0.35841 0.21285 0.58471 -0.03900
C 	C 	0.29460 0.13773 0.62459 0.05200
C 	C 	0.47197 0.21496 0.57575 -0.06000
H 	H 	0.41279 0.11927 0.63696 0.05500
H 	H 	0.51427 0.15916 0.60748 0.03100
H 	H 	0.41598 0.26673 0.54846 0.07200
H 	H 	0.31459 0.22690 0.57809 0.07300
C 	C 	0.50519 0.97648 0.92252 0.05500
C 	C 	0.53019 0.04546 0.93932 0.00600
C 	C 	0.51058 0.04460 0.96792 -0.09200
C 	C 	0.45908 0.97808 0.97789 0.06600
C 	C 	0.43149 0.90993 0.96072 -0.00200
C 	C 	0.45412 0.90916 0.93254 -0.08500
C 	C 	0.42433 0.83717 0.91314 0.77900
H 	H 	0.52306 0.97667 0.90107 0.06700
H 	H 	0.44063 0.97904 0.99918 0.05200
C 	C 	0.54228 0.11557 0.98759 0.78100
F 	F 	0.44016 0.85460 0.88496 -0.44000
F 	F 	0.35425 0.80708 0.91449 -0.44400
F 	F 	0.45016 0.78087 0.92142 -0.42200
F 	F 	0.51043 0.16866 0.98285 -0.43400
F 	F 	0.61093 0.15104 0.98280 -0.44400
F 	F 	0.53561 0.09461 0.01593 -0.44100
C 	C 	0.49101 0.44826 0.96647 0.05800
C 	C 	0.47290 0.41731 0.93871 0.01000
C 	C 	0.41402 0.42149 0.92475 -0.08200
C 	C 	0.37586 0.45975 0.93866 0.05400
C 	C 	0.39581 0.49369 0.96592 0.01500
C 	C 	0.45180 0.48451 0.98064 -0.08500
C 	C 	0.47184 0.51658 0.01088 0.77800
H 	H 	0.53648 0.44517 0.97683 0.06800
H 	H 	0.33168 0.46528 0.92799 0.07500
C 	C 	0.39254 0.38636 0.89497 0.77900
F 	F 	0.51694 0.48648 0.02357 -0.43000
F 	F 	0.41517 0.49698 0.02751 -0.44000
F 	F 	0.50244 0.59712 0.01041 -0.42900
F 	F 	0.37805 0.30650 0.89543 -0.42700
F 	F 	0.44438 0.41972 0.87637 -0.43800
F 	F 	0.33525 0.39882 0.88465 -0.43300
C 	C 	0.32217 0.03834 0.80051 0.03000
C 	C 	0.25602 0.01154 0.81058 -0.04200
C 	C 	0.20039 0.99112 0.79136 0.01800
C 	C 	0.42602 0.10443 0.83658 -0.06000
C 	C 	0.27690 0.01816 0.75184 0.01700
C 	C 	0.33244 0.03873 0.77113 -0.05100
C 	C 	0.37897 0.07347 0.82009 0.05500
H 	H 	0.24771 0.00972 0.83331 0.07800
H 	H 	0.14964 0.97392 0.79948 0.05600
H 	H 	0.38350 0.05791 0.76320 0.05400
O 	O 	0.63349 0.25403 0.87197 -0.70100
H 	H 	0.62882 0.27352 0.85272 0.16400
O 	O 	0.62957 0.13284 0.50633 -0.33500
H 	H 	0.10021 0.47099 0.13456 0.04900
F 	F 	0.63432 0.54169 0.39674 -0.43500
C 	C 	0.04878 0.64431 0.62599 0.01600
C 	C 	0.06624 0.72437 0.62079 -0.06500
C 	C 	0.03277 0.36139 0.15013 -0.01600
C 	C 	0.06680 0.74821 0.59241 0.02700
H 	H 	0.08373 0.80997 0.58777 0.06400
H 	H 	0.04907 0.37692 0.17219 0.02700
C 	C 	0.62758 0.86700 0.09526 0.03000
F 	F 	0.61179 0.98545 0.50924 -0.43300
O 	O 	0.70654 0.40934 0.86776 -0.39000
O 	O 	0.64858 0.32240 0.92090 -0.70000
Ni	Ni	0.66783 0.43046 0.93387 1.09600
H 	H 	0.65222 0.29024 0.93723 0.20300
O 	O 	0.71067 0.32201 0.49004 -0.69300
O 	O 	0.68379 0.47221 0.48772 -0.34800
O 	O 	0.68525 0.27367 0.54073 -0.69700
H 	H 	0.69976 0.28276 0.47422 0.18800
H 	H 	0.69271 0.30479 0.55874 0.16000
C 	C 	0.69459 0.89553 0.08616 -0.04200
C 	C 	0.66854 0.88775 0.14450 0.01400
H 	H 	0.70483 0.89871 0.06360 0.08100
H 	H 	0.65783 0.88509 0.16700 0.04300
C 	C 	0.65695 0.90924 0.31132 0.02200
C 	C 	0.66303 0.86989 0.33609 -0.03900
C 	C 	0.71042 0.92951 0.29108 0.05700
H 	H 	0.71046 0.86218 0.34153 0.07600
F 	F 	0.70304 0.54499 0.43433 -0.45900
Ni	Ni	0.71954 0.32562 0.89301 1.10400
O 	O 	0.72878 0.17002 0.87030 -0.38900
O 	O 	0.72387 0.50182 0.90306 -0.32300
C 	C 	0.72293 0.48232 0.87599 0.33200
O 	O 	0.72821 0.13898 0.54839 -0.34800
H 	H 	0.72545 0.10586 0.60719 0.02600
H 	H 	0.72432 0.60434 0.78705 0.06200
C 	C 	0.73591 0.91664 0.13551 -0.07500
H 	H 	0.00610 0.01657 0.68103 0.15400
C 	C 	0.03417 0.69306 0.57081 -0.03700
Ni	Ni	0.75653 0.42708 0.47497 1.10200
C 	C 	0.74866 0.92025 0.10620 0.01900
C 	C 	0.75223 0.54198 0.85578 -0.05000
O 	O 	0.77795 0.30166 0.86281 -0.35500
O 	O 	0.75598 0.43198 0.95284 -0.34000
C 	C 	0.77286 0.22922 0.85695 0.27300
Ni	Ni	0.77320 0.29871 0.51870 1.10500
C 	C 	0.75462 0.94087 0.27406 -0.08600
H 	H 	0.76822 0.01928 0.63532 0.05800
C 	C 	0.77696 0.64224 0.79027 -0.05200
C 	C 	0.77838 0.58953 0.83808 0.06400
H 	H 	0.78408 0.68731 0.74793 0.04500
C 	C 	0.78437 0.18587 0.56110 0.27300
C 	C 	0.77671 0.10741 0.60427 0.01600
O 	O 	0.78240 0.91891 0.18325 -0.40800
O 	O 	0.80573 0.40604 0.91226 -0.34100
O 	O 	0.82085 0.49512 0.50682 -0.36000
O 	O 	0.80578 0.40304 0.54059 -0.39100
C 	C 	0.79276 0.94241 0.15672 0.27200
H 	H 	0.80033 0.94169 0.09895 0.05800
C 	C 	0.80075 0.05816 0.62011 -0.04400
C 	C 	0.81104 0.64374 0.81642 0.03200
C 	C 	0.81110 0.68860 0.76799 0.01600
H 	H 	0.02733 0.71269 0.54965 0.10500
O 	O 	0.81743 0.25481 0.55045 -0.34300
C 	C 	0.81043 0.43634 0.93842 0.29600
O 	O 	0.80605 0.87975 0.24260 -0.38400
C 	C 	0.80574 0.94547 0.25387 0.32500
C 	C 	0.81678 0.15419 0.58318 -0.06600
F 	F 	0.81869 0.59452 0.95547 -0.44400
C 	C 	0.84366 0.46812 0.52911 0.31800
O 	O 	0.83320 0.39635 0.46008 -0.35200
C 	C 	0.82653 0.21616 0.84047 -0.07000
H 	H 	0.83123 0.30492 0.80971 0.04200
H 	H 	0.83672 0.12699 0.86811 0.06100
Ni	Ni	0.84501 0.86941 0.20399 1.07700
C 	C 	0.85170 0.26117 0.81642 0.01500
O 	O 	0.86323 0.33216 0.49713 -0.31100
O 	O 	0.85120 0.99573 0.14994 -0.36500
C 	C 	0.86521 0.05625 0.61518 0.01700
C 	C 	0.85439 0.16068 0.84918 0.01900
O 	O 	0.85949 0.00999 0.25276 -0.38500
F 	F 	0.86797 0.59653 0.91322 -0.44200
C 	C 	0.87922 0.69234 0.82034 -0.04700
C 	C 	0.87976 0.73686 0.77176 -0.07700
C 	C 	0.87998 0.38597 0.47715 0.29300
O 	O 	0.89192 0.77071 0.72218 -0.40200
C 	C 	0.88361 0.15727 0.58011 0.02200
C 	C 	0.88578 0.99704 0.62779 0.05600
C 	C 	0.87825 0.47105 0.95242 0.02800
C 	C 	0.87972 0.60827 0.94234 0.79000
C 	C 	0.90144 0.51987 0.54527 -0.08100
H 	H 	0.88302 0.35846 0.96109 0.09000
Ni	Ni	0.00417 0.93863 0.72552 1.09100
F 	F 	0.91133 0.27855 0.44200 -0.42900
O 	O 	0.90851 0.85067 0.66967 -0.40300
C 	C 	0.90609 0.94891 0.63760 -0.10100
H 	H 	0.90603 0.69318 0.84044 0.08900
C 	C 	0.90772 0.10821 0.59606 -0.04100
C 	C 	0.90182 0.24802 0.80043 -0.05100
C 	C 	0.91352 0.73866 0.79811 0.02000
C 	C 	0.91567 0.78754 0.74865 0.28200
O 	O 	0.90361 0.81693 0.22423 -0.39000
H 	H 	0.91526 0.19381 0.56412 0.07600
C 	C 	0.91082 0.42102 0.96191 0.03000
C 	C 	0.91332 0.55309 0.95356 -0.11700
C 	C 	0.90489 0.14811 0.83331 -0.04500
F 	F 	0.91994 0.68593 0.94750 -0.43000
C 	C 	0.01651 0.58899 0.60442 -0.06700
Ni	Ni	0.91808 0.06083 0.18125 1.10200
O 	O 	0.92206 0.16236 0.16291 -0.37000
H 	H 	0.91866 0.28056 0.78118 0.05400
O 	O 	0.92413 0.96521 0.20145 -0.70100
F 	F 	0.01771 0.28003 0.44422 -0.44500
H 	H 	0.92437 0.10320 0.83965 0.07300
H 	H 	0.93021 0.20945 0.10823 0.06400
C 	C 	0.93627 0.89620 0.64856 0.31400
C 	C 	0.92747 0.19023 0.80846 0.03000
O 	O 	0.93623 0.90803 0.26144 -0.35800
C 	C 	0.00394 0.61387 0.57743 0.01800
H 	H 	0.93742 0.14002 0.22711 0.16600
C 	C 	0.93938 0.84547 0.24820 0.28900
H 	H 	0.94306 0.54067 0.48165 0.07400
C 	C 	0.94923 0.56265 0.55941 0.09100
Ni	Ni	0.95219 0.77697 0.68701 1.07100
C 	C 	0.95263 0.43003 0.47195 -0.00700
Ni	Ni	0.95247 0.01022 0.24065 1.10100
F 	F 	0.95982 0.26784 0.48442 -0.42500
O 	O 	0.96044 0.85701 0.75545 -0.35400
H 	H 	0.96109 0.94997 0.19400 0.16000
H 	H 	0.95828 0.10804 0.59262 0.07000
O 	O 	0.96183 0.10858 0.21842 -0.70300
C 	C 	0.96507 0.16281 0.78849 0.03900
H 	H 	0.96649 0.77540 0.80129 0.05500
C 	C 	0.96575 0.26725 0.11419 0.01000
F 	F 	0.96771 0.31766 0.98116 -0.42100
O 	O 	0.97215 0.01595 0.74617 -0.36000
C 	C 	0.97115 0.30365 0.45829 0.78600
C 	C 	0.97751 0.51179 0.47555 0.07700
C 	C 	0.97896 0.45070 0.97188 -0.04000
H 	H 	0.98117 0.30380 0.07068 0.09500
C 	C 	0.98092 0.22191 0.16266 0.28800
C 	C 	0.98080 0.80679 0.26076 -0.04900
C 	C 	0.98151 0.58313 0.96361 0.12100
O 	O 	0.99962 0.07625 0.27598 -0.34000
O 	O 	0.99781 0.06388 0.15641 -0.35200
H 	H 	0.99439 0.17700 0.31738 0.07300
C 	C 	0.99517 0.32044 0.09286 -0.01200
C 	C 	0.98794 0.28555 0.14278 -0.04500
C 	C 	0.99106 0.13301 0.77160 -0.05900
O 	O 	0.99743 0.90414 0.64083 -0.35300
O 	O 	0.98982 0.76161 0.64855 -0.37700
H 	H 	0.98745 0.66192 0.30944 0.08900
C 	C 	0.99670 0.39192 0.46281 -0.06200
H 	H 	0.99597 0.52745 0.60944 0.07200
