data_crystal

_cell_length_a 29.58127
_cell_length_b 30.11508
_cell_length_c 17.48770
_cell_angle_alpha 95.48202
_cell_angle_beta  95.46847
_cell_angle_gamma 125.58293

_symmetry_space_group_name_	'P 1'
_symmetry_space_group_name_H-M	'P 1'

loop_
_symmetry_equiv_pos_as_xyz
  x,y,z

loop_
_atom_site_label
_atom_site_type_symbol
_atom_site_fract_x
_atom_site_fract_y
_atom_site_fract_z
_atom_site_charge
C 	C 	0.97333 0.02792 0.98145 0.16700
C 	C 	0.04175 0.01669 0.94696 0.12200
N 	N 	0.02708 0.05025 0.97080 -0.14000
C 	C 	0.94730 0.00121 0.42692 0.10400
N 	N 	0.00465 0.03355 0.43462 -0.13500
C 	C 	0.03353 0.01265 0.45377 0.11500
Cu	Cu	0.65615 0.26275 0.01402 0.90300
Cu	Cu	0.72712 0.27223 0.87788 0.86700
Cu	Cu	0.67927 0.33232 0.88691 0.89400
Cu	Cu	0.63596 0.35486 0.02189 0.86600
C 	C 	0.66005 0.31750 0.16059 0.19400
O 	O 	0.57068 0.21953 0.99578 -0.34200
C 	C 	0.68944 0.29169 0.73462 0.19300
O 	O 	0.69110 0.34505 0.99927 -0.58200
O 	O 	0.65704 0.25760 0.90098 -0.63200
O 	O 	0.69919 0.23270 0.04021 -0.37400
O 	O 	0.76947 0.29363 0.98037 -0.39200
O 	O 	0.62753 0.32852 0.12372 -0.37200
O 	O 	0.70731 0.40778 0.87820 -0.38100
C 	C 	0.70174 0.44046 0.92591 0.29900
C 	C 	0.54427 0.23394 0.95186 0.28400
O 	O 	0.57330 0.28317 0.93247 -0.38500
O 	O 	0.66243 0.41982 0.96980 -0.37500
O 	O 	0.66761 0.28226 0.12489 -0.33500
C 	C 	0.75118 0.25801 0.02807 0.24200
O 	O 	0.67067 0.31622 0.77297 -0.34200
O 	O 	0.70278 0.26223 0.76814 -0.38800
H 	H 	0.73047 0.37517 0.02572 0.11600
H 	H 	0.62201 0.22616 0.86538 0.17700
Cu	Cu	0.72806 0.33292 0.38463 0.92700
Cu	Cu	0.71019 0.25639 0.51411 0.86100
Cu	Cu	0.65257 0.30623 0.50649 0.89200
Cu	Cu	0.63477 0.35374 0.37454 0.89200
C 	C 	0.67625 0.33343 0.23803 0.19300
O 	O 	0.77327 0.41718 0.40890 -0.36400
C 	C 	0.68934 0.29151 0.65821 0.19400
O 	O 	0.64307 0.29809 0.39451 -0.64000
O 	O 	0.72906 0.32768 0.49620 -0.64400
O 	O 	0.75857 0.29058 0.35750 -0.37000
O 	O 	0.69251 0.21900 0.40992 -0.44400
O 	O 	0.66461 0.36493 0.27506 -0.36000
O 	O 	0.57528 0.27899 0.51154 -0.38400
C 	C 	0.54459 0.28909 0.46717 0.29300
C 	C 	0.75616 0.44171 0.45028 0.29000
O 	O 	0.70569 0.41164 0.46794 -0.39800
O 	O 	0.56735 0.32766 0.42338 -0.39800
O 	O 	0.71212 0.32603 0.27389 -0.32600
C 	C 	0.73163 0.23874 0.36657 0.29400
O 	O 	0.66572 0.31129 0.62007 -0.34300
O 	O 	0.71756 0.27624 0.62429 -0.39200
H 	H 	0.61262 0.26004 0.36567 0.15900
H 	H 	0.76053 0.36069 0.53453 0.17600
C 	C 	0.78509 0.50161 0.45558 -0.09800
C 	C 	0.84011 0.53996 0.49878 0.02300
C 	C 	0.86643 0.59707 0.50582 -0.08000
C 	C 	0.83785 0.61608 0.46963 0.04800
C 	C 	0.78354 0.57746 0.42398 -0.08100
C 	C 	0.75709 0.52059 0.41785 0.02400
C 	C 	0.86647 0.67648 0.47557 -0.05700
C 	C 	0.83837 0.69850 0.48618 -0.04800
C 	C 	0.86503 0.75745 0.48256 0.03200
C 	C 	0.83767 0.77155 0.43150 -0.06000
C 	C 	0.86382 0.82709 0.42500 -0.01700
C 	C 	0.91736 0.86910 0.47027 -0.02500
C 	C 	0.94340 0.85509 0.52421 -0.01700
C 	C 	0.91734 0.79957 0.53036 -0.05900
H 	H 	0.86220 0.52563 0.52756 0.02200
H 	H 	0.90881 0.62649 0.53975 0.04600
H 	H 	0.76207 0.59149 0.39260 0.04400
H 	H 	0.71497 0.49118 0.38313 0.00900
H 	H 	0.91099 0.70325 0.47155 0.04100
H 	H 	0.79415 0.67201 0.49174 0.04000
H 	H 	0.79678 0.73934 0.39543 0.03900
H 	H 	0.84313 0.83724 0.38336 0.03600
H 	H 	0.98406 0.88718 0.56088 0.03800
H 	H 	0.93794 0.78926 0.57189 0.04300
C 	C 	0.75118 0.20561 0.33884 -0.10200
C 	C 	0.80430 0.23168 0.31633 0.02000
C 	C 	0.82741 0.20262 0.30503 -0.07800
C 	C 	0.79771 0.14745 0.31610 0.04500
C 	C 	0.74257 0.11990 0.33127 -0.08100
C 	C 	0.71937 0.14878 0.34249 0.01500
C 	C 	0.82590 0.11996 0.31757 -0.05900
C 	C 	0.83213 0.10150 0.38195 -0.04800
C 	C 	0.85888 0.07255 0.38479 0.02800
C 	C 	0.83519 0.02571 0.42027 -0.05600
C 	C 	0.86343 0.00189 0.43267 -0.02500
C 	C 	0.91601 0.02475 0.40986 -0.02100
C 	C 	0.93922 0.07101 0.37268 -0.02100
C 	C 	0.91103 0.09505 0.36079 -0.05700
H 	H 	0.82864 0.27493 0.31055 0.03500
H 	H 	0.86924 0.22365 0.29061 0.04700
H 	H 	0.71844 0.07663 0.33701 0.04300
H 	H 	0.67743 0.12742 0.35657 0.02300
H 	H 	0.84325 0.11658 0.26719 0.03900
H 	H 	0.81449 0.10513 0.43194 0.03800
H 	H 	0.79527 0.00835 0.43966 0.03900
H 	H 	0.84500 0.96644 0.46168 0.04400
H 	H 	0.97933 0.08876 0.35379 0.03500
H 	H 	0.93045 0.13195 0.33487 0.04000
C 	C 	0.48562 0.26316 0.47610 -0.09300
C 	C 	0.46436 0.29447 0.47728 0.02100
C 	C 	0.40688 0.26862 0.47668 -0.07900
C 	C 	0.37011 0.21135 0.47552 0.04700
C 	C 	0.39159 0.18017 0.47602 -0.07800
C 	C 	0.44919 0.20613 0.47712 0.01900
C 	C 	0.30851 0.18349 0.46587 -0.05700
C 	C 	0.27669 0.14475 0.50778 -0.04800
C 	C 	0.21451 0.11174 0.49001 0.03100
C 	C 	0.18196 0.05406 0.46593 -0.05700
C 	C 	0.12300 0.02209 0.45114 -0.02300
C 	C 	0.09581 0.04739 0.46206 -0.02300
C 	C 	0.12855 0.10542 0.48543 -0.01700
C 	C 	0.18767 0.13745 0.49927 -0.05800
H 	H 	0.49222 0.33868 0.47743 0.03000
H 	H 	0.39075 0.29298 0.47597 0.04600
H 	H 	0.36343 0.13564 0.47307 0.04500
H 	H 	0.46505 0.18151 0.47575 0.02200
H 	H 	0.28905 0.19511 0.42442 0.04100
H 	H 	0.29615 0.13383 0.55045 0.04100
H 	H 	0.10833 0.12557 0.49459 0.04000
H 	H 	0.21257 0.18205 0.51836 0.04400
C 	C 	0.73265 0.49969 0.91965 -0.10000
C 	C 	0.75563 0.51832 0.85277 0.02300
C 	C 	0.78460 0.57440 0.84732 -0.07200
C 	C 	0.79028 0.61223 0.90805 0.03700
C 	C 	0.76801 0.59384 0.97528 -0.03300
C 	C 	0.73929 0.53792 0.98100 0.06100
C 	C 	0.82304 0.67178 0.90338 -0.04700
C 	C 	0.80195 0.70040 0.91773 -0.03900
C 	C 	0.83701 0.76126 0.92176 0.02500
C 	C 	0.83812 0.79522 0.98385 -0.01500
C 	C 	0.87333 0.85301 0.99048 0.02800
C 	C 	0.90443 0.84319 0.87065 -0.01100
C 	C 	0.86893 0.78542 0.86374 -0.05400
H 	H 	0.75086 0.48944 0.80487 0.03800
H 	H 	0.80239 0.58839 0.79571 0.04800
H 	H 	0.77366 0.62302 0.02358 0.00400
H 	H 	0.72276 0.52445 0.03353 -0.01600
H 	H 	0.86466 0.69229 0.88786 0.04500
H 	H 	0.76019 0.67958 0.93292 0.05000
H 	H 	0.81275 0.77692 0.02802 0.00100
H 	H 	0.86650 0.75952 0.81363 0.04400
C 	C 	0.95630 0.06449 0.00138 -0.12400
C 	C 	0.98443 0.11672 0.97902 0.03800
C 	C 	0.96529 0.14920 0.99167 -0.03100
C 	C 	0.91799 0.13011 0.02700 0.00900
C 	C 	0.89077 0.07862 0.05152 -0.07300
C 	C 	0.91012 0.04621 0.03937 0.00700
C 	C 	0.89278 0.16055 0.02789 -0.10600
C 	C 	0.87416 0.16894 0.09100 -0.03700
C 	C 	0.84626 0.19672 0.08849 0.02700
C 	C 	0.79118 0.16943 0.10354 -0.07200
C 	C 	0.76110 0.19124 0.08872 0.00800
C 	C 	0.78600 0.24061 0.05852 -0.08800
C 	C 	0.84305 0.27048 0.05065 -0.00000
C 	C 	0.87302 0.24866 0.06567 -0.07500
H 	H 	0.02006 0.13148 0.94967 0.03700
H 	H 	0.98637 0.18867 0.97211 0.04400
H 	H 	0.85356 0.06285 0.07757 0.04100
H 	H 	0.88855 0.00649 0.05820 0.02000
H 	H 	0.89074 0.17761 0.97669 0.08400
H 	H 	0.87622 0.15228 0.14256 0.03300
H 	H 	0.77085 0.13023 0.12376 0.04200
H 	H 	0.71784 0.16865 0.09789 0.03500
H 	H 	0.86367 0.30974 0.03062 0.01600
H 	H 	0.91642 0.27121 0.05705 0.03300
C 	C 	0.48177 0.19964 0.93750 -0.08700
C 	C 	0.44983 0.14380 0.94646 0.02100
C 	C 	0.39161 0.11387 0.94471 -0.07400
C 	C 	0.36458 0.13913 0.93299 0.05000
C 	C 	0.39607 0.19427 0.92090 -0.07300
C 	C 	0.45418 0.22414 0.92237 0.01900
C 	C 	0.30500 0.10995 0.94263 -0.05400
C 	C 	0.26775 0.11038 0.89277 -0.04500
C 	C 	0.20994 0.08626 0.90733 0.03400
C 	C 	0.18745 0.11607 0.89988 -0.05500
C 	C 	0.13282 0.09368 0.91335 -0.01300
C 	C 	0.09993 0.04096 0.93400 -0.01900
C 	C 	0.12231 0.01084 0.94046 -0.01900
C 	C 	0.17673 0.03309 0.92638 -0.05300
H 	H 	0.47026 0.12398 0.95673 0.03700
H 	H 	0.36772 0.07137 0.95410 0.05200
H 	H 	0.37599 0.21468 0.91335 0.05100
H 	H 	0.47807 0.26708 0.91505 0.03200
H 	H 	0.29154 0.08792 0.99110 0.05000
H 	H 	0.28117 0.13207 0.84396 0.04200
H 	H 	0.21243 0.15675 0.88405 0.04600
H 	H 	0.11592 0.11707 0.90688 0.04300
H 	H 	0.09759 0.97019 0.95642 0.05000
H 	H 	0.19293 0.00890 0.92987 0.04600
N 	N 	0.93452 0.97175 0.96951 -0.13600
C 	C 	0.94917 0.93811 0.94619 0.12500
N 	N 	0.00261 0.96066 0.93446 -0.13400
N 	N 	0.00496 0.95950 0.46559 -0.13400
C 	C 	0.94783 0.92697 0.45777 0.11100
N 	N 	0.91900 0.94778 0.43812 -0.13800
H 	H 	0.20239 0.03396 0.45844 0.03900
H 	H 	0.09843 0.97755 0.43185 0.04300
C 	C 	0.90756 0.87730 0.93480 -0.03400
H 	H 	0.87517 0.87890 0.04002 -0.00200
H 	H 	0.92975 0.86144 0.82642 0.03800
