data_crystal

_cell_length_a 38.66876
_cell_length_b 38.21928
_cell_length_c 26.02208
_cell_angle_alpha 89.95449
_cell_angle_beta  89.94197
_cell_angle_gamma 90.60334

_symmetry_space_group_name_	'P 1'
_symmetry_space_group_name_H-M	'P 1'

loop_
_symmetry_equiv_pos_as_xyz
  x,y,z

loop_
_atom_site_label
_atom_site_type_symbol
_atom_site_fract_x
_atom_site_fract_y
_atom_site_fract_z
_atom_site_charge
Zn	Zn	0.47156 0.46539 0.99712 1.22400
C 	C 	0.49527 0.53563 0.97911 0.33200
O 	O 	0.49489 0.45813 0.06307 -0.47700
O 	O 	0.46677 0.54382 0.00362 -0.45900
O 	O 	0.50402 0.51322 0.09122 -0.49400
C 	C 	0.40477 0.49422 0.00891 0.33600
O 	O 	0.42783 0.48491 0.97469 -0.44400
O 	O 	0.41383 0.49794 0.05722 -0.50900
C 	C 	0.51609 0.48219 0.08063 0.33600
O 	O 	0.44093 0.41281 0.00867 -0.33000
Zn	Zn	0.45601 0.52355 0.07560 1.17100
O 	O 	0.50222 0.50257 0.96997 -0.43200
C 	C 	0.46202 0.39961 0.97539 0.29300
O 	O 	0.48476 0.42135 0.95676 -0.38300
Zn	Zn	0.42069 0.05831 0.04765 1.22200
C 	C 	0.44928 0.04286 0.14816 0.32600
O 	O 	0.37032 0.04887 0.04851 -0.45400
O 	O 	0.44064 0.07428 0.16348 -0.45200
O 	O 	0.36905 0.05093 0.13545 -0.49800
C 	C 	0.43700 0.12986 0.07057 0.34100
O 	O 	0.45039 0.09942 0.05886 -0.45500
O 	O 	0.40866 0.13155 0.09814 -0.51500
C 	C 	0.35318 0.04523 0.09182 0.32600
O 	O 	0.41756 0.07678 0.96067 -0.32300
Zn	Zn	0.39344 0.09487 0.14439 1.17300
O 	O 	0.43530 0.02947 0.10646 -0.43900
C 	C 	0.43274 0.04742 0.95057 0.28600
O 	O 	0.43947 0.02821 0.99013 -0.39100
C 	C 	0.54733 0.96684 0.72676 0.14000
C 	C 	0.56827 0.94546 0.75716 -0.10700
H 	H 	0.58574 0.92725 0.73894 0.07000
C 	C 	0.56587 0.94682 0.81087 0.05600
C 	C 	0.54319 0.97045 0.83411 -0.09200
C 	C 	0.52180 0.99152 0.80381 0.05700
C 	C 	0.52393 0.98972 0.75008 -0.10700
H 	H 	0.50727 0.00573 0.72649 0.07100
N 	N 	0.54899 0.96433 0.67172 -0.17900
C 	C 	0.52828 0.94042 0.64678 0.19000
C 	C 	0.53153 0.93552 0.59339 -0.06100
C 	C 	0.55583 0.95572 0.56587 0.03000
C 	C 	0.57635 0.98060 0.59175 -0.06100
C 	C 	0.57240 0.98469 0.64521 0.19000
C 	C 	0.51109 0.91055 0.56729 -0.01400
C 	C 	0.51487 0.90587 0.51429 -0.01400
C 	C 	0.53906 0.92616 0.48648 -0.06200
C 	C 	0.55959 0.95104 0.51236 0.03000
C 	C 	0.58377 0.97135 0.48478 -0.06200
C 	C 	0.60065 0.00078 0.56398 -0.01400
C 	C 	0.60436 0.99617 0.51094 -0.01400
C 	C 	0.54272 0.92234 0.43296 0.19000
N 	N 	0.56563 0.94318 0.40628 -0.17900
C 	C 	0.58663 0.96682 0.43125 0.18900
C 	C 	0.56605 0.94180 0.35111 0.13900
C 	C 	0.58794 0.91848 0.32563 -0.10600
C 	C 	0.58733 0.91628 0.27185 0.05500
C 	C 	0.56488 0.93752 0.24362 -0.09000
C 	C 	0.54263 0.96052 0.26907 0.05400
C 	C 	0.54353 0.96285 0.32281 -0.10600
O 	O 	0.59151 0.00792 0.67000 -0.20300
O 	O 	0.50551 0.92171 0.67305 -0.20400
O 	O 	0.52367 0.89904 0.40820 -0.20400
O 	O 	0.60916 0.98574 0.40487 -0.20500
H 	H 	0.52626 0.98042 0.34274 0.06900
H 	H 	0.60491 0.90179 0.34765 0.06800
H 	H 	0.61673 0.02005 0.58331 0.04900
H 	H 	0.62318 0.01201 0.49033 0.04800
H 	H 	0.49228 0.89470 0.58790 0.04800
H 	H 	0.49885 0.88654 0.49498 0.04700
H 	H 	0.56442 0.93581 0.20202 0.05700
H 	H 	0.54139 0.97169 0.87567 0.05700
Zn	Zn	0.66972 0.83061 0.02953 1.22200
C 	C 	0.66483 0.82764 0.13931 0.32600
O 	O 	0.70415 0.86588 0.05160 -0.45000
O 	O 	0.69800 0.82108 0.14300 -0.45200
O 	O 	0.74707 0.82567 0.05338 -0.51600
C 	C 	0.66884 0.75547 0.03198 0.33000
O 	O 	0.66919 0.78304 0.00185 -0.47000
O 	O 	0.68391 0.75672 0.07706 -0.49700
C 	C 	0.73711 0.85833 0.05437 0.34100
O 	O 	0.67421 0.85114 0.94367 -0.32500
Zn	Zn	0.72194 0.78905 0.09009 1.17000
O 	O 	0.64834 0.82068 0.09642 -0.44500
C 	C 	0.64394 0.86438 0.95218 0.28600
O 	O 	0.63124 0.85885 0.99747 -0.38900
Zn	Zn	0.10022 0.65426 0.92159 1.22200
C 	C 	0.10858 0.63602 0.02849 0.32700
O 	O 	0.09261 0.70537 0.91714 -0.45900
O 	O 	0.14117 0.64602 0.02694 -0.45200
O 	O 	0.11500 0.71581 0.99655 -0.49800
C 	C 	0.17075 0.63265 0.91900 0.34400
O 	O 	0.13866 0.62127 0.91997 -0.45200
O 	O 	0.17727 0.66586 0.92675 -0.52100
C 	C 	0.09572 0.72551 0.95783 0.32800
O 	O 	0.09744 0.64929 0.83071 -0.32500
Zn	Zn	0.15657 0.68939 0.98484 1.17100
O 	O 	0.08672 0.64698 0.99357 -0.44000
C 	C 	0.06734 0.63501 0.83917 0.28700
O 	O 	0.05840 0.63254 0.88693 -0.39000
C 	C 	0.00665 0.52240 0.23735 0.13700
C 	C 	0.98208 0.50444 0.20749 -0.10500
H 	H 	0.96053 0.49117 0.22606 0.06800
C 	C 	0.98414 0.50548 0.15373 0.05500
C 	C 	0.01163 0.52343 0.12994 -0.08900
C 	C 	0.03596 0.54190 0.15960 0.05400
C 	C 	0.03379 0.54080 0.21338 -0.10700
H 	H 	0.05211 0.55556 0.23649 0.06700
N 	N 	0.00176 0.52526 0.29193 -0.18100
C 	C 	0.01548 0.50044 0.32388 0.19000
C 	C 	0.00994 0.50225 0.37732 -0.06500
C 	C 	0.99038 0.52982 0.39748 0.03400
C 	C 	0.97681 0.55523 0.36432 -0.06400
C 	C 	0.98289 0.55253 0.31115 0.19200
C 	C 	0.02352 0.47688 0.41075 -0.01200
C 	C 	0.01749 0.47898 0.46368 -0.01700
C 	C 	0.99781 0.50650 0.48405 -0.05800
C 	C 	0.98430 0.53194 0.45088 0.02800
C 	C 	0.96467 0.55947 0.47100 -0.06100
C 	C 	0.95725 0.58283 0.38471 -0.01300
C 	C 	0.95122 0.58492 0.43760 -0.01500
C 	C 	0.99138 0.50901 0.53719 0.19100
N 	N 	0.97212 0.53603 0.55627 -0.17900
C 	C 	0.95878 0.56108 0.52432 0.18900
C 	C 	0.96594 0.53827 0.61062 0.13900
C 	C 	0.93673 0.52184 0.63223 -0.10600
C 	C 	0.93016 0.52489 0.68498 0.05400
C 	C 	0.95268 0.54454 0.71600 -0.08800
C 	C 	0.98234 0.56037 0.69484 0.05500
C 	C 	0.98889 0.55725 0.64200 -0.10400
O 	O 	0.97023 0.57617 0.27961 -0.20700
O 	O 	0.03380 0.47472 0.30443 -0.20500
O 	O 	0.00390 0.48532 0.56877 -0.20500
O 	O 	0.94036 0.58675 0.54369 -0.20500
H 	H 	0.01181 0.56927 0.62533 0.06700
H 	H 	0.91927 0.50682 0.60803 0.06900
H 	H 	0.94663 0.60268 0.35972 0.04600
H 	H 	0.93607 0.60635 0.45244 0.04700
H 	H 	0.03869 0.45547 0.39591 0.04700
H 	H 	0.02815 0.45915 0.48868 0.04900
H 	H 	0.94742 0.54700 0.75678 0.05100
H 	H 	0.01266 0.52512 0.08835 0.05700
Zn	Zn	0.84640 0.42962 0.93242 1.22200
C 	C 	0.78464 0.46665 0.96246 0.33500
O 	O 	0.85610 0.43999 0.85946 -0.45400
O 	O 	0.80425 0.49415 0.97181 -0.45300
O 	O 	0.82502 0.48979 0.86145 -0.49600
C 	C 	0.88127 0.47451 0.00434 0.33200
O 	O 	0.85965 0.44799 0.99972 -0.45400
O 	O 	0.88296 0.49876 0.96870 -0.50800
C 	C 	0.84341 0.46725 0.83552 0.31500
O 	O 	0.89808 0.39722 0.93556 -0.33100
Zn	Zn	0.84424 0.50900 0.92399 1.17100
O 	O 	0.79661 0.44024 0.93563 -0.43400
C 	C 	0.87786 0.36996 0.93571 0.29300
O 	O 	0.84507 0.37627 0.93510 -0.38400
Zn	Zn	0.00553 0.05862 0.07180 1.22100
C 	C 	0.02640 0.98695 0.06025 0.33200
O 	O 	0.96655 0.05325 0.12015 -0.47000
O 	O 	0.04606 0.99298 0.10063 -0.45500
O 	O 	0.98246 0.00325 0.16014 -0.50100
C 	C 	0.07380 0.06702 0.11254 0.34600
O 	O 	0.05566 0.06456 0.07022 -0.45000
O 	O 	0.05877 0.06107 0.15683 -0.51600
C 	C 	0.95840 0.02268 0.13987 0.33800
O 	O 	0.00265 0.11972 0.08061 -0.33100
Zn	Zn	0.02975 0.01966 0.16511 1.17000
O 	O 	0.00490 0.01089 0.04337 -0.43600
C 	C 	0.98835 0.11933 0.03562 0.29300
O 	O 	0.98423 0.08870 0.01500 -0.38200
C 	C 	0.95134 0.22065 0.93099 -0.07800
C 	C 	0.94384 0.21087 0.98784 0.03100
C 	C 	0.94383 0.27596 0.00961 -0.08000
C 	C 	0.91707 0.27237 0.96551 0.02900
C 	C 	0.93560 0.25683 0.91786 -0.07700
H 	H 	0.97975 0.22153 0.92402 0.04600
H 	H 	0.94021 0.20036 0.90497 0.04600
C 	C 	0.95904 0.17685 0.00136 0.02000
H 	H 	0.93127 0.28692 0.04451 0.04500
H 	H 	0.96491 0.29448 0.99825 0.04600
C 	C 	0.90236 0.30689 0.95364 0.02200
H 	H 	0.95651 0.27495 0.90461 0.04600
H 	H 	0.91696 0.25381 0.88554 0.04600
C 	C 	0.88833 0.24625 0.98281 -0.07600
H 	H 	0.86875 0.24303 0.95178 0.04600
H 	H 	0.87462 0.25661 0.01715 0.04500
C 	C 	0.90406 0.21010 0.99592 -0.07700
H 	H 	0.89784 0.20323 0.03651 0.04500
H 	H 	0.89201 0.18962 0.97115 0.04600
C 	C 	0.95952 0.23990 0.02269 -0.07800
H 	H 	0.95447 0.23369 0.06385 0.04700
H 	H 	0.98811 0.24123 0.01759 0.04600
C 	C 	0.97211 0.14995 0.01529 -0.08700
C 	C 	0.89088 0.33552 0.94504 -0.09000
C 	C 	0.85244 0.51163 0.76663 0.03600
C 	C 	0.87358 0.52573 0.72956 -0.01200
C 	C 	0.90073 0.50627 0.70863 -0.01100
C 	C 	0.90426 0.47105 0.72290 -0.05600
H 	H 	0.92513 0.45564 0.70724 0.04800
C 	C 	0.88259 0.45655 0.76069 0.01700
H 	H 	0.88661 0.42987 0.77319 0.04000
C 	C 	0.85754 0.47743 0.78480 -0.11900
C 	C 	0.82008 0.52229 0.73991 -0.08800
H 	H 	0.84309 0.56740 0.69617 0.04200
H 	H 	0.80556 0.54233 0.76182 0.04100
H 	H 	0.84161 0.52483 0.66011 0.04700
H 	H 	0.80430 0.49984 0.72553 0.05400
C 	C 	0.84412 0.53836 0.69781 -0.07000
C 	C 	0.96056 0.46705 0.08465 -0.01300
C 	C 	0.93564 0.45944 0.04887 0.06300
C 	C 	0.90398 0.47704 0.04911 -0.11800
C 	C 	0.89803 0.50283 0.08637 0.02300
H 	H 	0.87424 0.51756 0.08595 0.02000
C 	C 	0.92343 0.51053 0.12308 -0.05800
H 	H 	0.91911 0.53118 0.15079 0.04700
C 	C 	0.95498 0.49262 0.12240 -0.00700
C 	C 	0.96653 0.42954 0.09750 -0.06600
H 	H 	0.91451 0.40882 0.07404 0.06200
H 	H 	0.95857 0.42231 0.13727 0.04700
H 	H 	0.94847 0.40721 0.02242 0.06000
H 	H 	0.99271 0.42077 0.08589 0.04400
C 	C 	0.93815 0.42086 0.05679 -0.10000
C 	C 	0.07891 0.88051 0.02207 -0.07400
C 	C 	0.04271 0.88959 0.00051 0.02100
C 	C 	0.05363 0.84721 0.92652 -0.07700
C 	C 	0.05964 0.82501 0.97567 0.02400
C 	C 	0.08881 0.84274 0.00754 -0.07900
H 	H 	0.09875 0.89907 0.00662 0.04000
H 	H 	0.07911 0.88323 0.06469 0.03900
C 	C 	0.03418 0.92548 0.01637 0.02900
H 	H 	0.03266 0.83519 0.90293 0.04300
H 	H 	0.07746 0.84775 0.90250 0.04100
C 	C 	0.07002 0.78892 0.96373 0.02900
H 	H 	0.11338 0.84325 0.98516 0.03800
H 	H 	0.09372 0.82748 0.04325 0.03800
C 	C 	0.02593 0.82505 0.00809 -0.07900
H 	H 	0.02944 0.80937 0.04375 0.04200
H 	H 	0.00443 0.81264 0.98601 0.04300
C 	C 	0.01598 0.86301 0.02269 -0.07600
H 	H 	0.98971 0.86877 0.00761 0.04200
H 	H 	0.01475 0.86538 0.06530 0.03900
C 	C 	0.04364 0.88533 0.94118 -0.07500
H 	H 	0.01789 0.89152 0.92461 0.04300
H 	H 	0.06271 0.90403 0.92415 0.04300
C 	C 	0.02944 0.95417 0.03404 -0.11200
C 	C 	0.08068 0.75962 0.95860 -0.12000
C 	C 	0.01755 0.56312 0.77491 -0.01200
C 	C 	0.03771 0.58092 0.80934 0.06000
C 	C 	0.04884 0.61528 0.79924 -0.09700
C 	C 	0.03808 0.63188 0.75388 0.01300
H 	H 	0.04541 0.65884 0.74634 0.03300
C 	C 	0.01706 0.61372 0.71870 -0.05200
H 	H 	0.00817 0.62681 0.68430 0.04500
C 	C 	0.00717 0.57882 0.72871 -0.01100
C 	C 	0.03916 0.53104 0.77661 -0.06800
H 	H 	0.08867 0.55697 0.80104 0.05800
H 	H 	0.05285 0.52557 0.73988 0.04900
H 	H 	0.06112 0.53997 0.85531 0.05400
H 	H 	0.02514 0.50837 0.79387 0.04400
C 	C 	0.06221 0.55131 0.81598 -0.09600
C 	C 	0.08370 0.55419 0.09769 -0.01200
C 	C 	0.10136 0.57697 0.06627 0.06100
C 	C 	0.09618 0.61316 0.06984 -0.11600
C 	C 	0.07258 0.62599 0.10608 0.02200
H 	H 	0.06735 0.65375 0.10809 0.02700
C 	C 	0.05466 0.60276 0.13840 -0.05700
H 	H 	0.03566 0.61272 0.16512 0.04800
C 	C 	0.06006 0.56656 0.13426 -0.00800
C 	C 	0.11542 0.53460 0.11218 -0.06800
H 	H 	0.14637 0.54776 0.04169 0.05100
H 	H 	0.11500 0.50731 0.09744 0.04300
H 	H 	0.15386 0.57775 0.09787 0.05200
H 	H 	0.12265 0.53750 0.15337 0.04400
C 	C 	0.13551 0.56053 0.07644 -0.09700
C 	C 	0.84846 0.91156 0.07017 -0.07400
C 	C 	0.81424 0.92985 0.08494 0.02000
C 	C 	0.84680 0.96183 0.15643 -0.07600
C 	C 	0.86801 0.97022 0.10721 0.02200
C 	C 	0.87996 0.93520 0.08321 -0.07600
H 	H 	0.85070 0.88627 0.09113 0.03800
H 	H 	0.84864 0.90544 0.02833 0.04200
C 	C 	0.78482 0.90648 0.07277 0.03200
H 	H 	0.83769 0.98651 0.17438 0.04200
H 	H 	0.86335 0.94841 0.18518 0.04100
C 	C 	0.89867 0.99184 0.11958 0.03400
H 	H 	0.89721 0.92117 0.11039 0.04200
H 	H 	0.89519 0.94035 0.04761 0.04500
C 	C 	0.84397 0.98874 0.06818 -0.07600
H 	H 	0.85849 0.99501 0.03232 0.04600
H 	H 	0.83483 0.01394 0.08446 0.04400
C 	C 	0.81228 0.96496 0.05507 -0.07500
H 	H 	0.78800 0.97878 0.06509 0.04400
H 	H 	0.81169 0.95989 0.01295 0.04400
C 	C 	0.81519 0.93810 0.14334 -0.07500
H 	H 	0.79096 0.95143 0.15506 0.04200
H 	H 	0.81668 0.91339 0.16588 0.03900
C 	C 	0.76222 0.88543 0.06372 -0.12100
C 	C 	0.92523 0.00724 0.12927 -0.11800
C 	C 	0.62186 0.92083 0.83913 -0.00700
C 	C 	0.64055 0.90094 0.87272 0.05800
C 	C 	0.62382 0.88148 0.91148 -0.09600
C 	C 	0.58749 0.87953 0.91193 0.01300
H 	H 	0.57409 0.86333 0.93990 0.03800
C 	C 	0.56839 0.89974 0.87742 -0.05000
H 	H 	0.54039 0.89902 0.87894 0.04400
C 	C 	0.58562 0.92211 0.84274 -0.01100
C 	C 	0.64462 0.95231 0.84547 -0.07000
H 	H 	0.66467 0.93964 0.92393 0.05700
H 	H 	0.63161 0.97468 0.86452 0.04800
H 	H 	0.69230 0.92368 0.86949 0.05600
H 	H 	0.65905 0.95891 0.80973 0.04800
C 	C 	0.66593 0.92970 0.88378 -0.09400
C 	C 	0.66146 0.87828 0.19885 0.06300
C 	C 	0.64277 0.89971 0.23033 -0.00900
C 	C 	0.60890 0.89062 0.24498 -0.00900
C 	C 	0.59388 0.85963 0.22597 -0.05600
H 	H 	0.56734 0.85288 0.23537 0.04600
C 	C 	0.61294 0.83778 0.19363 0.02100
H 	H 	0.60100 0.81424 0.17830 0.03200
C 	C 	0.64712 0.84680 0.18034 -0.11600
C 	C 	0.69278 0.87956 0.23230 -0.09500
H 	H 	0.68179 0.93123 0.26932 0.04600
H 	H 	0.71495 0.89316 0.21341 0.05100
H 	H 	0.66600 0.89191 0.30625 0.04500
H 	H 	0.69891 0.85405 0.25063 0.05200
C 	C 	0.67152 0.90397 0.26813 -0.06900
C 	C 	0.19690 0.06576 0.15535 -0.07600
C 	C 	0.17958 0.05961 0.10235 0.02000
C 	C 	0.23507 0.08136 0.05934 -0.07400
C 	C 	0.24720 0.05159 0.09553 0.01800
C 	C 	0.23661 0.06104 0.15135 -0.07400
H 	H 	0.19125 0.09262 0.16939 0.03900
H 	H 	0.18616 0.04703 0.18418 0.03700
C 	C 	0.14181 0.06382 0.10625 0.03400
H 	H 	0.24214 0.07525 0.01887 0.04300
H 	H 	0.24834 0.10639 0.06959 0.03700
C 	C 	0.28502 0.04749 0.09223 0.03000
H 	H 	0.24990 0.08565 0.16355 0.03200
H 	H 	0.24481 0.04006 0.17829 0.03700
C 	C 	0.22809 0.01732 0.08007 -0.07500
H 	H 	0.23617 0.99547 0.10554 0.04000
H 	H 	0.23505 0.00995 0.04002 0.04200
C 	C 	0.18834 0.02204 0.08408 -0.07500
H 	H 	0.17632 0.01686 0.04593 0.04300
H 	H 	0.17745 0.00238 0.11143 0.03800
C 	C 	0.19533 0.08608 0.06336 -0.07600
H 	H 	0.18343 0.08221 0.02481 0.04500
H 	H 	0.18964 0.11333 0.07557 0.04200
C 	C 	0.11081 0.06616 0.10936 -0.12400
C 	C 	0.31610 0.04547 0.09106 -0.13500
C 	C 	0.43902 0.01647 0.86679 0.05100
C 	C 	0.46091 0.00278 0.83085 -0.00300
C 	C 	0.49573 0.01375 0.82860 -0.01200
C 	C 	0.50625 0.04301 0.85752 -0.05000
H 	H 	0.53258 0.05280 0.85477 0.04500
C 	C 	0.48373 0.05721 0.89408 0.01300
H 	H 	0.49287 0.07783 0.91936 0.03400
C 	C 	0.45091 0.04193 0.90176 -0.09200
C 	C 	0.42505 0.98144 0.88258 -0.09600
H 	H 	0.43609 0.95378 0.80846 0.04800
H 	H 	0.39729 0.97800 0.87252 0.05100
H 	H 	0.47047 0.94951 0.85896 0.04800
H 	H 	0.43211 0.97357 0.92234 0.06300
C 	C 	0.44993 0.96586 0.84151 -0.06900
C 	C 	0.51657 0.01778 0.24506 -0.01100
C 	C 	0.49443 0.03736 0.21617 0.06000
C 	C 	0.47213 0.02137 0.18039 -0.11400
C 	C 	0.47078 0.98461 0.17748 0.01900
H 	H 	0.45263 0.97162 0.15200 0.03800
C 	C 	0.49341 0.96457 0.20717 -0.05500
H 	H 	0.49263 0.93630 0.20429 0.04500
C 	C 	0.51750 0.98124 0.23959 -0.00800
C 	C 	0.54701 0.04095 0.23418 -0.06900
H 	H 	0.52828 0.06287 0.15951 0.05600
H 	H 	0.56739 0.02821 0.21071 0.04700
H 	H 	0.51712 0.08965 0.21764 0.05100
H 	H 	0.55640 0.05478 0.26913 0.04600
C 	C 	0.52181 0.06329 0.20119 -0.09500
C 	C 	0.49043 0.27115 0.95475 -0.07900
C 	C 	0.46746 0.29358 0.99068 0.03000
C 	C 	0.42652 0.24140 0.00045 -0.07700
C 	C 	0.46234 0.22678 0.01587 0.02000
C 	C 	0.48740 0.23165 0.96964 -0.07400
H 	H 	0.48234 0.27470 0.91406 0.04500
H 	H 	0.51790 0.27990 0.95767 0.04500
C 	C 	0.46898 0.33125 0.97871 0.02200
H 	H 	0.40788 0.23838 0.03285 0.04200
H 	H 	0.41580 0.22635 0.96736 0.04600
C 	C 	0.45791 0.18997 0.03160 0.03400
H 	H 	0.47787 0.21635 0.93605 0.04500
H 	H 	0.51343 0.22153 0.97966 0.04400
C 	C 	0.47643 0.24856 0.06169 -0.07400
H 	H 	0.50229 0.23880 0.07339 0.04200
H 	H 	0.45897 0.24567 0.09553 0.04000
C 	C 	0.47942 0.28772 0.04693 -0.07900
H 	H 	0.46340 0.30344 0.07379 0.04600
H 	H 	0.50672 0.29672 0.05160 0.04500
C 	C 	0.42952 0.28050 0.98570 -0.07500
H 	H 	0.41231 0.29605 0.01110 0.04400
H 	H 	0.42027 0.28415 0.94556 0.04400
C 	C 	0.46724 0.36256 0.97421 -0.08800
C 	C 	0.45040 0.16138 0.04795 -0.11800
C 	C 	0.26381 0.54369 0.90028 -0.07400
C 	C 	0.25490 0.57055 0.94287 0.01800
C 	C 	0.28453 0.53110 0.00814 -0.08000
C 	C 	0.31237 0.53735 0.96603 0.02300
C 	C 	0.29769 0.52412 0.91393 -0.07700
H 	H 	0.24224 0.52442 0.89587 0.04400
H 	H 	0.26705 0.55728 0.86270 0.04300
C 	C 	0.22325 0.59006 0.93093 0.03400
H 	H 	0.29426 0.54043 0.04604 0.03800
H 	H 	0.27888 0.50259 0.01203 0.04300
C 	C 	0.34478 0.51965 0.97966 0.03100
H 	H 	0.29231 0.49548 0.91601 0.04500
H 	H 	0.31709 0.52837 0.88285 0.04500
C 	C 	0.31932 0.57728 0.96161 -0.07700
H 	H 	0.33914 0.58263 0.93145 0.04200
H 	H 	0.32978 0.58763 0.99851 0.03600
C 	C 	0.28565 0.59673 0.94803 -0.07300
H 	H 	0.28008 0.61636 0.97848 0.03400
H 	H 	0.28940 0.61138 0.91140 0.04000
C 	C 	0.25075 0.55061 0.99453 -0.07100
H 	H 	0.24438 0.56923 0.02596 0.03600
H 	H 	0.22894 0.53144 0.99191 0.04100
C 	C 	0.19851 0.60835 0.92385 -0.12600
C 	C 	0.37192 0.50708 0.99232 -0.11700
C 	C 	0.63176 0.50911 0.02230 -0.07800
C 	C 	0.61889 0.47335 0.04362 0.02300
C 	C 	0.66038 0.44306 0.98206 -0.07200
C 	C 	0.68370 0.46909 0.01230 0.02000
C 	C 	0.66978 0.50660 0.00382 -0.07600
H 	H 	0.61514 0.51746 0.98969 0.04600
H 	H 	0.62987 0.52954 0.05261 0.04000
C 	C 	0.58255 0.47595 0.06024 0.03600
H 	H 	0.66963 0.41584 0.98761 0.04600
H 	H 	0.66179 0.44884 0.94016 0.04500
C 	C 	0.71986 0.46701 0.99459 0.03300
H 	H 	0.67129 0.51369 0.96236 0.04200
H 	H 	0.68599 0.52594 0.02519 0.03900
C 	C 	0.68083 0.46023 0.07042 -0.07500
H 	H 	0.69724 0.47861 0.09321 0.04200
H 	H 	0.69053 0.43335 0.07771 0.04400
C 	C 	0.64269 0.46270 0.08884 -0.07600
H 	H 	0.63415 0.43699 0.10481 0.04300
H 	H 	0.64090 0.48224 0.12041 0.04100
C 	C 	0.62229 0.44560 0.00041 -0.08000
H 	H 	0.61333 0.41955 0.01463 0.04600
H 	H 	0.60554 0.45261 0.96725 0.05000
C 	C 	0.55241 0.47856 0.07127 -0.12200
C 	C 	0.74942 0.46623 0.97985 -0.11100
C 	C 	0.57549 0.67227 0.03196 -0.07800
C 	C 	0.60856 0.66927 0.99861 0.02600
C 	C 	0.60276 0.60277 0.00412 -0.07800
C 	C 	0.56719 0.61484 0.98345 0.02300
C 	C 	0.55127 0.64039 0.02310 -0.07500
H 	H 	0.58250 0.67378 0.07340 0.04200
H 	H 	0.56149 0.69673 0.02228 0.04300
C 	C 	0.63117 0.69986 0.00812 0.02800
H 	H 	0.61497 0.58459 0.97625 0.04100
H 	H 	0.59926 0.58824 0.04089 0.04000
C 	C 	0.54338 0.58486 0.97659 0.03000
H 	H 	0.54674 0.62670 0.06035 0.03600
H 	H 	0.52569 0.64964 0.00928 0.03800
C 	C 	0.57320 0.63499 0.93237 -0.07600
H 	H 	0.54808 0.64408 0.91664 0.04300
H 	H 	0.58483 0.61735 0.90321 0.04300
C 	C 	0.59758 0.66705 0.94129 -0.07700
H 	H 	0.62086 0.66474 0.91638 0.04300
H 	H 	0.58408 0.69142 0.92977 0.04500
C 	C 	0.62709 0.63479 0.01309 -0.07900
H 	H 	0.65095 0.63185 0.98957 0.04000
H 	H 	0.63518 0.63549 0.05413 0.04000
C 	C 	0.64874 0.72520 0.01806 -0.11600
C 	C 	0.52219 0.56154 0.97521 -0.11800
