data_crystal

_cell_length_a 47.90070
_cell_length_b 44.27388
_cell_length_c 36.78222
_cell_angle_alpha 89.95650
_cell_angle_beta  89.95202
_cell_angle_gamma 90.48226

_symmetry_space_group_name_	'P 1'
_symmetry_space_group_name_H-M	'P 1'

loop_
_symmetry_equiv_pos_as_xyz
  x,y,z

loop_
_atom_site_label
_atom_site_type_symbol
_atom_site_fract_x
_atom_site_fract_y
_atom_site_fract_z
_atom_site_charge
Zn	Zn	0.49075 0.49834 0.00439 1.22000
C 	C 	0.51263 0.55646 0.98265 0.32000
O 	O 	0.51624 0.48688 0.04364 -0.47500
O 	O 	0.49584 0.56715 0.00774 -0.45600
O 	O 	0.53220 0.53353 0.05847 -0.49500
C 	C 	0.44220 0.52994 0.02693 0.32400
O 	O 	0.45597 0.52008 0.99852 -0.44900
O 	O 	0.45533 0.53423 0.05788 -0.50700
C 	C 	0.53690 0.50474 0.05322 0.31900
O 	O 	0.46320 0.45566 0.01815 -0.33200
Zn	Zn	0.49404 0.54847 0.05904 1.16900
O 	O 	0.51528 0.52709 0.97848 -0.43400
C 	C 	0.47402 0.44381 0.98919 0.28100
O 	O 	0.49134 0.46107 0.97156 -0.38300
Zn	Zn	0.35922 0.13417 0.01755 1.22100
C 	C 	0.37998 0.13145 0.09119 0.34000
O 	O 	0.31809 0.13241 0.01919 -0.46200
O 	O 	0.37592 0.16059 0.09469 -0.44900
O 	O 	0.31589 0.14719 0.07834 -0.49500
C 	C 	0.38230 0.19385 0.01722 0.34900
O 	O 	0.38853 0.16507 0.01684 -0.45600
O 	O 	0.35914 0.20300 0.03248 -0.51300
C 	C 	0.30440 0.13411 0.05007 0.33500
O 	O 	0.35843 0.13866 0.95328 -0.32000
Zn	Zn	0.34143 0.18097 0.07207 1.17200
O 	O 	0.36754 0.11625 0.06514 -0.44000
C 	C 	0.36709 0.11095 0.95346 0.29700
O 	O 	0.37016 0.09910 0.98530 -0.38200
C 	C 	0.52670 0.97290 0.32080 0.14500
C 	C 	0.50904 0.99231 0.30153 -0.11300
H 	H 	0.49538 0.00744 0.31621 0.07300
C 	C 	0.50923 0.99229 0.26346 0.07100
C 	C 	0.52683 0.97262 0.24462 -0.09800
C 	C 	0.54440 0.95312 0.26377 0.07200
C 	C 	0.54443 0.95332 0.30186 -0.11200
H 	H 	0.55816 0.93844 0.31678 0.07400
N 	N 	0.52683 0.97332 0.35989 -0.18200
C 	C 	0.51261 0.95127 0.37872 0.19700
C 	C 	0.51183 0.95182 0.41699 -0.08100
C 	C 	0.52552 0.97532 0.43565 0.06100
C 	C 	0.54009 0.99765 0.41599 -0.08100
C 	C 	0.54077 0.99607 0.37777 0.19700
C 	C 	0.49780 0.92912 0.43674 0.01000
C 	C 	0.49641 0.93050 0.47464 -0.05800
C 	C 	0.50818 0.95529 0.49351 0.01600
C 	C 	0.52459 0.97653 0.47404 -0.02900
C 	C 	0.54004 0.99899 0.49277 0.01500
C 	C 	0.55329 0.02149 0.43466 0.01000
C 	C 	0.55282 0.02251 0.47261 -0.05800
C 	C 	0.50494 0.95870 0.53167 0.01600
C 	C 	0.52265 0.97899 0.55060 -0.02900
C 	C 	0.54131 0.99807 0.53133 0.01500
O 	O 	0.55490 0.01651 0.35906 -0.20300
O 	O 	0.49932 0.92971 0.36088 -0.20400
H 	H 	0.56353 0.03961 0.41985 0.04300
H 	H 	0.56121 0.04232 0.48602 0.04500
H 	H 	0.48826 0.91009 0.42286 0.04200
H 	H 	0.48733 0.91158 0.48917 0.04500
C 	C 	0.56156 0.01474 0.55095 -0.05800
C 	C 	0.56085 0.01544 0.58891 0.01000
C 	C 	0.54066 0.99860 0.60812 -0.08100
C 	C 	0.52172 0.98017 0.58899 0.06100
C 	C 	0.48370 0.94330 0.55107 -0.05800
C 	C 	0.48255 0.94495 0.58897 0.01000
C 	C 	0.50190 0.96285 0.60819 -0.08100
C 	C 	0.53944 0.99945 0.64635 0.19700
N 	N 	0.52034 0.98193 0.66476 -0.18200
C 	C 	0.50161 0.96392 0.64645 0.19700
C 	C 	0.52032 0.98199 0.70385 0.14500
C 	C 	0.54039 0.96541 0.72297 -0.11200
C 	C 	0.54057 0.96571 0.76104 0.07200
C 	C 	0.52052 0.98230 0.78001 -0.09800
C 	C 	0.50038 0.99876 0.76104 0.07200
C 	C 	0.50033 0.99873 0.72295 -0.11200
O 	O 	0.55668 0.01718 0.66456 -0.20300
O 	O 	0.48352 0.94724 0.66479 -0.20300
H 	H 	0.55583 0.95251 0.70818 0.07400
H 	H 	0.48486 0.01156 0.70816 0.07400
H 	H 	0.57865 0.02599 0.53713 0.04600
H 	H 	0.57639 0.02871 0.60331 0.04300
H 	H 	0.46728 0.93120 0.53695 0.04500
H 	H 	0.46631 0.93258 0.60326 0.04300
H 	H 	0.52063 0.98244 0.80952 0.06000
H 	H 	0.52695 0.97259 0.21511 0.05900
Zn	Zn	0.69414 0.82977 0.00782 1.22100
C 	C 	0.67785 0.82725 0.08336 0.34000
O 	O 	0.73480 0.83617 0.00606 -0.46600
O 	O 	0.68483 0.79865 0.08449 -0.44800
O 	O 	0.74240 0.81864 0.06331 -0.49500
C 	C 	0.67565 0.76824 0.00583 0.34300
O 	O 	0.66743 0.79634 0.00804 -0.45800
O 	O 	0.70039 0.76058 0.01770 -0.51100
C 	C 	0.74985 0.83578 0.03584 0.33500
O 	O 	0.69197 0.82781 0.94345 -0.32200
Zn	Zn	0.71915 0.78295 0.05632 1.17000
O 	O 	0.68702 0.84478 0.05709 -0.44100
C 	C 	0.68111 0.85449 0.94608 0.29800
O 	O 	0.67850 0.86468 0.97880 -0.38200
Zn	Zn	0.15423 0.67081 0.97708 1.22200
C 	C 	0.14939 0.66504 0.05496 0.34000
O 	O 	0.14862 0.71344 0.96368 -0.46300
O 	O 	0.17509 0.67487 0.05927 -0.45000
O 	O 	0.15797 0.73130 0.02037 -0.49500
C 	C 	0.21086 0.65389 0.99125 0.34600
O 	O 	0.18507 0.64386 0.98889 -0.45200
O 	O 	0.21591 0.68276 0.99595 -0.51200
C 	C 	0.14615 0.73461 0.98846 0.31900
O 	O 	0.16160 0.65836 0.91498 -0.32200
Zn	Zn	0.19175 0.70779 0.02561 1.17000
O 	O 	0.13581 0.67067 0.02479 -0.44300
C 	C 	0.13677 0.64655 0.91704 0.29700
O 	O 	0.12462 0.64836 0.94829 -0.38600
C 	C 	0.99551 0.50120 0.66702 0.14600
C 	C 	0.01491 0.51809 0.68730 -0.11300
H 	H 	0.03116 0.53085 0.67346 0.07400
C 	C 	0.01312 0.51862 0.72531 0.07200
C 	C 	0.99199 0.50225 0.74304 -0.09800
C 	C 	0.97255 0.48544 0.72288 0.07200
C 	C 	0.97433 0.48485 0.68486 -0.11200
H 	H 	0.95929 0.47192 0.66914 0.07400
N 	N 	0.99704 0.50109 0.62799 -0.18200
C 	C 	0.01361 0.48039 0.61081 0.19700
C 	C 	0.01548 0.48005 0.57259 -0.08200
C 	C 	0.99959 0.50051 0.55222 0.06300
C 	C 	0.98360 0.52233 0.57030 -0.08200
C 	C 	0.98230 0.52203 0.60855 0.19800
C 	C 	0.03384 0.46049 0.55471 0.01100
C 	C 	0.03570 0.46059 0.51685 -0.05800
C 	C 	0.01742 0.47844 0.49578 0.01600
C 	C 	0.00033 0.49974 0.51371 -0.03000
C 	C 	0.98497 0.52116 0.49348 0.01600
C 	C 	0.97015 0.54483 0.55011 0.01100
C 	C 	0.97179 0.54502 0.51225 -0.05900
C 	C 	0.01689 0.47654 0.45715 0.01500
C 	C 	0.00150 0.49796 0.43694 -0.02900
C 	C 	0.98434 0.51917 0.45488 0.01600
O 	O 	0.96680 0.54192 0.62575 -0.20300
O 	O 	0.02776 0.46066 0.63016 -0.20300
H 	H 	0.95918 0.56290 0.56372 0.04300
H 	H 	0.96410 0.56456 0.49794 0.04500
H 	H 	0.04751 0.44590 0.57010 0.04300
H 	H 	0.05237 0.44804 0.50434 0.04500
C 	C 	0.96590 0.53686 0.43386 -0.05800
C 	C 	0.96774 0.53700 0.39601 0.01000
C 	C 	0.98629 0.51766 0.37810 -0.08100
C 	C 	0.00232 0.49730 0.39843 0.06100
C 	C 	0.03026 0.45284 0.43830 -0.05800
C 	C 	0.03206 0.45323 0.40044 0.01000
C 	C 	0.01854 0.47572 0.38032 -0.08100
C 	C 	0.98826 0.51749 0.33990 0.19800
N 	N 	0.00519 0.49715 0.32268 -0.18300
C 	C 	0.02003 0.47626 0.34207 0.19700
C 	C 	0.00708 0.49749 0.28368 0.14500
C 	C 	0.98870 0.47973 0.26287 -0.11200
C 	C 	0.98984 0.48093 0.22484 0.07200
C 	C 	0.00947 0.49971 0.20762 -0.09900
C 	C 	0.02774 0.51758 0.22831 0.07200
C 	C 	0.02664 0.51639 0.26634 -0.11200
O 	O 	0.97387 0.53703 0.32058 -0.20400
O 	O 	0.03587 0.45670 0.32483 -0.20300
H 	H 	0.97336 0.46544 0.27631 0.07300
H 	H 	0.04060 0.53036 0.28246 0.07300
H 	H 	0.94915 0.54926 0.44643 0.04500
H 	H 	0.95395 0.55147 0.38064 0.04200
H 	H 	0.03796 0.43326 0.45252 0.04500
H 	H 	0.04317 0.43529 0.38678 0.04300
H 	H 	0.01016 0.50086 0.17816 0.06000
H 	H 	0.99054 0.50278 0.77248 0.06000
Zn	Zn	0.82000 0.36547 0.97389 1.22200
C 	C 	0.82090 0.37484 0.89647 0.33900
O 	O 	0.78214 0.37312 0.99229 -0.46400
O 	O 	0.80977 0.34802 0.89113 -0.44900
O 	O 	0.76111 0.36729 0.93733 -0.49200
C 	C 	0.83119 0.30413 0.95435 0.32600
O 	O 	0.84187 0.33148 0.95645 -0.45500
O 	O 	0.80410 0.30031 0.95104 -0.50900
C 	C 	0.76129 0.37862 0.97025 0.33600
O 	O 	0.83476 0.35243 0.03344 -0.32500
Zn	Zn	0.78070 0.32995 0.92673 1.17000
O 	O 	0.81840 0.38821 0.92811 -0.44100
C 	C 	0.84718 0.37858 0.03283 0.29800
O 	O 	0.84449 0.39398 0.00323 -0.38700
Zn	Zn	0.00252 0.03008 0.04085 1.22000
C 	C 	0.02811 0.97201 0.03000 0.34000
O 	O 	0.97073 0.02085 0.07291 -0.47100
O 	O 	0.04194 0.97778 0.06011 -0.45400
O 	O 	0.98741 0.97773 0.09766 -0.49600
C 	C 	0.05412 0.04605 0.07480 0.33000
O 	O 	0.04180 0.04098 0.04356 -0.45500
O 	O 	0.04299 0.03549 0.10489 -0.50900
C 	C 	0.96638 0.99347 0.08539 0.32000
O 	O 	0.99341 0.08194 0.04755 -0.32700
Zn	Zn	0.02361 0.99660 0.10538 1.17000
O 	O 	0.00780 0.98980 0.01926 -0.43700
C 	C 	0.98346 0.08040 0.01486 0.28800
O 	O 	0.98410 0.05396 0.99982 -0.37700
C 	C 	0.84963 0.27765 0.95589 -0.10100
C 	C 	0.84011 0.25054 0.97161 0.02200
C 	C 	0.85776 0.22560 0.97368 -0.06900
C 	C 	0.88504 0.22745 0.95985 0.03000
C 	C 	0.89442 0.25438 0.94358 -0.06900
C 	C 	0.87684 0.27940 0.94171 0.02300
C 	C 	0.90426 0.20177 0.96424 0.00200
C 	C 	0.92909 0.20545 0.98405 -0.03900
C 	C 	0.94617 0.18063 0.99079 -0.02800
C 	C 	0.93854 0.15195 0.97795 -0.00300
C 	C 	0.91419 0.14835 0.95724 -0.03300
C 	C 	0.89713 0.17320 0.95029 -0.03900
C 	C 	0.95429 0.12593 0.98898 0.04200
C 	C 	0.96757 0.10473 0.99982 -0.08700
H 	H 	0.81922 0.24892 0.98278 0.02900
H 	H 	0.85039 0.20501 0.98657 0.04800
H 	H 	0.91538 0.25599 0.93261 0.04900
H 	H 	0.88432 0.30005 0.92911 0.03700
H 	H 	0.93478 0.22736 0.99498 0.04300
H 	H 	0.96496 0.18357 0.00685 0.03900
H 	H 	0.90815 0.12623 0.94720 0.04200
H 	H 	0.87815 0.17017 0.93466 0.03900
C 	C 	0.88029 0.44892 0.78183 -0.03700
H 	H 	0.87017 0.46677 0.76536 0.04000
C 	C 	0.91139 0.44075 0.78047 0.01900
C 	C 	0.93262 0.45609 0.75827 -0.00600
C 	C 	0.88153 0.44793 0.82390 -0.02300
H 	H 	0.87203 0.46470 0.84251 0.03900
C 	C 	0.91289 0.43998 0.82219 -0.03600
H 	H 	0.92960 0.45047 0.83898 0.04000
C 	C 	0.87271 0.41478 0.78099 -0.02400
H 	H 	0.85597 0.40427 0.76428 0.03600
C 	C 	0.87429 0.41407 0.82271 -0.00800
C 	C 	0.85429 0.39960 0.84752 0.05200
C 	C 	0.90540 0.40593 0.82130 -0.02300
H 	H 	0.91556 0.38811 0.83778 0.03700
C 	C 	0.90419 0.40688 0.77922 -0.03700
H 	H 	0.91373 0.39014 0.76061 0.04000
C 	C 	0.83860 0.38810 0.86921 -0.11500
C 	C 	0.95059 0.46920 0.74140 -0.03300
C 	C 	0.90244 0.44536 0.11840 -0.02500
H 	H 	0.89058 0.46312 0.10389 0.03800
C 	C 	0.89933 0.41117 0.11228 -0.00200
C 	C 	0.88033 0.39824 0.08512 0.04300
C 	C 	0.93454 0.44188 0.11790 -0.03600
H 	H 	0.94946 0.45701 0.10345 0.03900
C 	C 	0.93119 0.40750 0.11144 -0.02500
H 	H 	0.94300 0.39407 0.09122 0.03800
C 	C 	0.90210 0.43988 0.15998 -0.03600
H 	H 	0.89031 0.45335 0.18019 0.04000
C 	C 	0.93396 0.43620 0.15912 0.01800
C 	C 	0.95355 0.45108 0.18403 -0.00600
C 	C 	0.93090 0.40199 0.15307 -0.03600
H 	H 	0.94281 0.38430 0.16760 0.04000
C 	C 	0.89867 0.40543 0.15349 -0.02500
H 	H 	0.88372 0.39029 0.16785 0.03800
C 	C 	0.96995 0.46424 0.20330 -0.03300
C 	C 	0.86502 0.38868 0.06175 -0.09400
C 	C 	0.13060 0.76239 0.98027 -0.10300
C 	C 	0.13868 0.78986 0.99631 0.02400
C 	C 	0.12296 0.81584 0.99056 -0.06800
C 	C 	0.09897 0.81467 0.96873 0.02800
C 	C 	0.09125 0.78743 0.95187 -0.06900
C 	C 	0.10706 0.76139 0.95752 0.02400
C 	C 	0.08085 0.84137 0.96605 0.00400
C 	C 	0.05442 0.84093 0.98253 -0.04300
C 	C 	0.04019 0.86795 0.98840 -0.02500
C 	C 	0.05231 0.89553 0.97787 -0.01400
C 	C 	0.07740 0.89566 0.95822 -0.02800
C 	C 	0.09163 0.86865 0.95226 -0.04200
C 	C 	0.04242 0.92317 0.99373 0.06000
C 	C 	0.03524 0.94585 0.00913 -0.12300
H 	H 	0.15702 0.79103 0.01349 0.01300
H 	H 	0.12904 0.83674 0.00378 0.04200
H 	H 	0.07278 0.78632 0.93494 0.04900
H 	H 	0.10061 0.74034 0.94496 0.03600
H 	H 	0.04571 0.81993 0.99283 0.04200
H 	H 	0.02063 0.86760 0.00323 0.03400
H 	H 	0.08676 0.91685 0.94957 0.04000
H 	H 	0.11177 0.86916 0.93884 0.04000
C 	C 	0.09283 0.56549 0.83681 -0.02500
H 	H 	0.10267 0.55001 0.85672 0.03900
C 	C 	0.09628 0.60002 0.83619 -0.00200
C 	C 	0.11218 0.61706 0.86345 0.04300
C 	C 	0.09740 0.56485 0.79510 -0.03600
H 	H 	0.11066 0.54856 0.78019 0.04100
C 	C 	0.10113 0.59972 0.79488 -0.02500
H 	H 	0.11779 0.61243 0.78030 0.03800
C 	C 	0.06107 0.56926 0.83100 -0.03500
H 	H 	0.04443 0.55659 0.84569 0.04000
C 	C 	0.06584 0.56889 0.78969 0.01800
C 	C 	0.04798 0.55127 0.76514 -0.00600
C 	C 	0.06926 0.60342 0.78902 -0.03600
H 	H 	0.05938 0.61887 0.76912 0.04100
C 	C 	0.06472 0.60399 0.83071 -0.02500
H 	H 	0.05139 0.62024 0.84560 0.03900
C 	C 	0.03248 0.53651 0.74629 -0.03300
C 	C 	0.12408 0.63073 0.88723 -0.09200
C 	C 	0.07748 0.61035 0.17243 -0.03700
H 	H 	0.06388 0.62384 0.19058 0.03900
C 	C 	0.07897 0.57570 0.17170 0.01800
C 	C 	0.06163 0.55528 0.19370 -0.00700
C 	C 	0.07658 0.61050 0.13035 -0.02300
H 	H 	0.06251 0.62449 0.11341 0.03800
C 	C 	0.07784 0.57562 0.12996 -0.03600
H 	H 	0.06452 0.56051 0.11310 0.03900
C 	C 	0.10985 0.61193 0.17131 -0.02400
H 	H 	0.12319 0.62708 0.18807 0.03400
C 	C 	0.10864 0.61176 0.12956 -0.00800
C 	C 	0.12430 0.63142 0.10463 0.05200
C 	C 	0.11011 0.57711 0.12886 -0.02400
H 	H 	0.12367 0.56359 0.11070 0.03700
C 	C 	0.11104 0.57690 0.17099 -0.03700
H 	H 	0.12505 0.56285 0.18794 0.03900
C 	C 	0.13626 0.64708 0.08269 -0.11600
C 	C 	0.04658 0.53821 0.21027 -0.03300
C 	C 	0.93847 0.97937 0.08237 -0.10100
C 	C 	0.91989 0.98884 0.05517 0.02200
C 	C 	0.89481 0.97318 0.04950 -0.06800
C 	C 	0.88802 0.94800 0.07100 0.02900
C 	C 	0.90605 0.93919 0.09903 -0.07000
C 	C 	0.93114 0.95481 0.10473 0.02200
C 	C 	0.86270 0.93004 0.06314 0.00100
C 	C 	0.86034 0.91427 0.03017 -0.03800
C 	C 	0.83700 0.89592 0.02352 -0.03600
C 	C 	0.81590 0.89326 0.04975 -0.00900
C 	C 	0.81799 0.90938 0.08242 -0.03200
C 	C 	0.84132 0.92773 0.08911 -0.04000
C 	C 	0.79264 0.87307 0.04383 0.05200
C 	C 	0.77314 0.85606 0.03966 -0.12000
H 	H 	0.92524 0.00773 0.03770 0.03500
H 	H 	0.88088 0.98030 0.02800 0.04900
H 	H 	0.90089 0.91985 0.11589 0.04600
H 	H 	0.94507 0.94752 0.12614 0.02500
H 	H 	0.87678 0.91586 0.00999 0.04000
H 	H 	0.83551 0.88352 0.99819 0.04300
H 	H 	0.80172 0.90745 0.10280 0.04000
H 	H 	0.84290 0.93992 0.11457 0.03900
C 	C 	0.59635 0.92177 0.86397 -0.03500
H 	H 	0.58032 0.93422 0.87965 0.04000
C 	C 	0.59830 0.92035 0.82231 0.01800
C 	C 	0.57839 0.93592 0.79879 -0.00600
C 	C 	0.62820 0.92759 0.86575 -0.02500
H 	H 	0.63876 0.94456 0.88331 0.03900
C 	C 	0.62992 0.92639 0.82371 -0.03600
H 	H 	0.64153 0.94263 0.80620 0.04100
C 	C 	0.60124 0.88731 0.86566 -0.02500
H 	H 	0.58958 0.87111 0.88316 0.03900
C 	C 	0.63286 0.89331 0.86711 -0.00200
C 	C 	0.65127 0.87877 0.89354 0.04300
C 	C 	0.63491 0.89182 0.82546 -0.02500
H 	H 	0.65097 0.87934 0.80989 0.03900
C 	C 	0.60293 0.88606 0.82362 -0.03600
H 	H 	0.59232 0.86913 0.80606 0.04100
C 	C 	0.66546 0.86737 0.91677 -0.09100
C 	C 	0.56141 0.94924 0.78085 -0.03300
C 	C 	0.62945 0.86643 0.20107 -0.02400
H 	H 	0.64388 0.85214 0.21708 0.03500
C 	C 	0.62818 0.86800 0.15937 -0.00800
C 	C 	0.64600 0.85179 0.13368 0.05100
C 	C 	0.59708 0.86456 0.20219 -0.03800
H 	H 	0.58455 0.84907 0.21961 0.03900
C 	C 	0.59615 0.86584 0.16008 -0.02400
H 	H 	0.58319 0.85105 0.14238 0.03600
C 	C 	0.62805 0.90140 0.20253 -0.03700
H 	H 	0.64100 0.91622 0.22021 0.04000
C 	C 	0.59602 0.89924 0.20323 0.01800
C 	C 	0.57791 0.91755 0.22638 -0.00700
C 	C 	0.59482 0.90073 0.16153 -0.03700
H 	H 	0.58043 0.91502 0.14543 0.03900
C 	C 	0.62706 0.90267 0.16049 -0.02300
H 	H 	0.63953 0.91823 0.14311 0.03900
C 	C 	0.56278 0.93341 0.24411 -0.03300
C 	C 	0.66058 0.83980 0.11131 -0.11500
C 	C 	0.08199 0.06040 0.07549 -0.10300
C 	C 	0.10168 0.05176 0.10171 0.02300
C 	C 	0.12925 0.06219 0.09932 -0.07200
C 	C 	0.13734 0.08142 0.07080 0.03000
C 	C 	0.11742 0.09110 0.04551 -0.07000
C 	C 	0.08987 0.08068 0.04786 0.02600
C 	C 	0.16685 0.09045 0.06660 0.00100
C 	C 	0.18002 0.10792 0.09348 -0.04100
C 	C 	0.20809 0.11621 0.08963 -0.03100
C 	C 	0.22314 0.10710 0.05890 -0.01300
C 	C 	0.21004 0.08965 0.03202 -0.03000
C 	C 	0.18198 0.08133 0.03585 -0.04100
C 	C 	0.25194 0.11599 0.05486 0.05300
C 	C 	0.27598 0.12391 0.05217 -0.12500
H 	H 	0.09591 0.03615 0.12318 0.01600
H 	H 	0.14447 0.05473 0.11909 0.04500
H 	H 	0.12341 0.10632 0.02372 0.04900
H 	H 	0.07477 0.08792 0.02781 0.03600
H 	H 	0.16851 0.11511 0.11727 0.03900
H 	H 	0.21810 0.12975 0.11049 0.03500
H 	H 	0.22157 0.08255 0.00819 0.04000
H 	H 	0.17201 0.06770 0.01504 0.04100
C 	C 	0.43913 0.07931 0.82439 -0.03600
H 	H 	0.44869 0.09607 0.80555 0.04100
C 	C 	0.44416 0.04508 0.82363 0.01800
C 	C 	0.46331 0.02924 0.79927 -0.00600
C 	C 	0.44276 0.07886 0.86623 -0.02500
H 	H 	0.45498 0.09555 0.88233 0.03900
C 	C 	0.44802 0.04447 0.86509 -0.03500
H 	H 	0.46491 0.03256 0.87981 0.04000
C 	C 	0.40736 0.07313 0.82894 -0.02500
H 	H 	0.39044 0.08508 0.81436 0.03900
C 	C 	0.41134 0.07244 0.87039 -0.00200
C 	C 	0.39409 0.08704 0.89811 0.04300
C 	C 	0.41640 0.03822 0.86957 -0.02500
H 	H 	0.40691 0.02141 0.88840 0.03900
C 	C 	0.41274 0.03861 0.82772 -0.03600
H 	H 	0.40058 0.02188 0.81163 0.04100
C 	C 	0.38108 0.09835 0.92255 -0.09100
C 	C 	0.47985 0.01563 0.78095 -0.03200
C 	C 	0.46072 0.08369 0.16204 -0.02400
H 	H 	0.47421 0.09837 0.14481 0.03700
C 	C 	0.42865 0.08324 0.16179 -0.00800
C 	C 	0.41137 0.10158 0.13761 0.05200
C 	C 	0.46049 0.04872 0.16187 -0.03700
H 	H 	0.47410 0.03423 0.14491 0.03900
C 	C 	0.42819 0.04853 0.16129 -0.02300
H 	H 	0.41489 0.03424 0.14341 0.03800
C 	C 	0.46014 0.08362 0.20419 -0.03700
H 	H 	0.47347 0.09785 0.22208 0.04000
C 	C 	0.45964 0.04891 0.20363 0.01800
C 	C 	0.47704 0.02923 0.22604 -0.00700
C 	C 	0.42757 0.04845 0.20338 -0.03700
H 	H 	0.41409 0.03375 0.22059 0.04000
C 	C 	0.42775 0.08347 0.20355 -0.02400
H 	H 	0.41412 0.09798 0.22045 0.03500
C 	C 	0.49157 0.01258 0.24356 -0.03300
C 	C 	0.39710 0.11575 0.11685 -0.11500
C 	C 	0.47245 0.41105 0.98265 -0.07500
C 	C 	0.46996 0.39111 0.01216 0.01000
C 	C 	0.46606 0.36026 0.00619 -0.06600
C 	C 	0.46462 0.34893 0.97062 0.02800
C 	C 	0.46830 0.36866 0.94104 -0.06400
C 	C 	0.47229 0.39964 0.94705 0.01200
C 	C 	0.45606 0.31722 0.96463 0.00400
C 	C 	0.47086 0.29382 0.98153 -0.04400
C 	C 	0.45833 0.26542 0.98613 -0.02400
C 	C 	0.43116 0.26017 0.97340 -0.01600
C 	C 	0.41780 0.28236 0.95270 -0.02700
C 	C 	0.43019 0.31083 0.94833 -0.04200
C 	C 	0.41510 0.23520 0.98760 0.06400
C 	C 	0.40066 0.21558 0.00066 -0.12900
H 	H 	0.47063 0.39957 0.03978 0.03700
H 	H 	0.46319 0.34526 0.02921 0.04500
H 	H 	0.46735 0.36012 0.91347 0.04700
H 	H 	0.47442 0.41480 0.92406 0.03700
H 	H 	0.49118 0.29827 0.99337 0.04100
H 	H 	0.46903 0.24819 0.00159 0.03500
H 	H 	0.39699 0.27828 0.94217 0.03900
H 	H 	0.41878 0.32853 0.93465 0.04100
C 	C 	0.41241 0.53783 0.02351 -0.10400
C 	C 	0.40055 0.55918 0.04703 0.02100
C 	C 	0.37304 0.56854 0.04188 -0.07200
C 	C 	0.35707 0.55663 0.01324 0.02700
C 	C 	0.36857 0.53462 0.99040 -0.06700
C 	C 	0.39610 0.52522 0.99552 0.02700
C 	C 	0.32893 0.56851 0.00593 -0.00400
C 	C 	0.30790 0.56601 0.03239 -0.03800
C 	C 	0.28236 0.58051 0.02735 -0.03700
C 	C 	0.27766 0.59752 0.99581 -0.00600
C 	C 	0.29816 0.59890 0.96864 -0.03400
C 	C 	0.32371 0.58443 0.97365 -0.03500
C 	C 	0.25338 0.61638 0.99331 0.05400
C 	C 	0.23361 0.63302 0.99192 -0.12100
H 	H 	0.41284 0.56914 0.06870 0.01800
H 	H 	0.36434 0.58559 0.05961 0.04400
H 	H 	0.35631 0.52509 0.96842 0.04900
H 	H 	0.40480 0.50837 0.97754 0.03700
H 	H 	0.31162 0.55353 0.05724 0.03800
H 	H 	0.26658 0.57929 0.04844 0.03900
H 	H 	0.29467 0.61198 0.94417 0.04100
H 	H 	0.33978 0.58644 0.95302 0.04000
C 	C 	0.56572 0.49318 0.05333 -0.10300
C 	C 	0.57045 0.46209 0.05759 0.02000
C 	C 	0.59696 0.45024 0.05127 -0.06900
C 	C 	0.61907 0.46934 0.04080 0.02900
C 	C 	0.61479 0.50061 0.03857 -0.07100
C 	C 	0.58827 0.51251 0.04496 0.02000
C 	C 	0.64599 0.45634 0.02950 -0.00100
C 	C 	0.65506 0.45930 0.99335 -0.03800
C 	C 	0.67919 0.44460 0.98171 -0.02600
C 	C 	0.69442 0.42685 0.00609 -0.02000
C 	C 	0.68581 0.42446 0.04242 -0.02900
C 	C 	0.66168 0.43917 0.05412 -0.04200
C 	C 	0.71819 0.41008 0.99347 0.05900
C 	C 	0.73792 0.39582 0.98284 -0.12400
H 	H 	0.55340 0.44698 0.06472 0.03400
H 	H 	0.60010 0.42610 0.05334 0.04700
H 	H 	0.63182 0.51558 0.03097 0.04500
H 	H 	0.58505 0.53657 0.04201 0.02900
H 	H 	0.64306 0.47240 0.97410 0.04100
H 	H 	0.68577 0.44660 0.95361 0.03800
H 	H 	0.69754 0.41086 0.06146 0.03800
H 	H 	0.65493 0.43684 0.08211 0.03900
C 	C 	0.53185 0.57728 0.96396 -0.09900
C 	C 	0.52169 0.60451 0.94988 0.02000
C 	C 	0.53992 0.62880 0.94375 -0.06900
C 	C 	0.56837 0.62614 0.95217 0.02700
C 	C 	0.57896 0.59783 0.96210 -0.06900
C 	C 	0.56076 0.57338 0.96761 0.01900
C 	C 	0.58575 0.65358 0.95685 0.00200
C 	C 	0.57758 0.67588 0.98175 -0.04300
C 	C 	0.59531 0.70027 0.98933 -0.02700
C 	C 	0.62138 0.70253 0.97228 -0.01200
C 	C 	0.62929 0.68082 0.94661 -0.03000
C 	C 	0.61150 0.65643 0.93883 -0.04100
C 	C 	0.64071 0.72592 0.98307 0.05500
C 	C 	0.65670 0.74536 0.99307 -0.11800
H 	H 	0.49946 0.60750 0.94601 0.03100
H 	H 	0.53165 0.65029 0.93488 0.04700
H 	H 	0.60098 0.59529 0.96794 0.04600
H 	H 	0.56891 0.55219 0.97757 0.03300
H 	H 	0.55786 0.67383 0.99601 0.03800
H 	H 	0.58906 0.71699 0.00917 0.03500
H 	H 	0.64941 0.68248 0.93323 0.03900
H 	H 	0.61795 0.63945 0.91943 0.04000
