data_crystal

_cell_length_a 25.80181
_cell_length_b 26.38131
_cell_length_c 17.41702
_cell_angle_alpha 95.53202
_cell_angle_beta  95.52008
_cell_angle_gamma 125.83225

_symmetry_space_group_name_	'P 1'
_symmetry_space_group_name_H-M	'P 1'

loop_
_symmetry_equiv_pos_as_xyz
  x,y,z

loop_
_atom_site_label
_atom_site_type_symbol
_atom_site_fract_x
_atom_site_fract_y
_atom_site_fract_z
_atom_site_charge
C 	C 	0.05567 0.02519 0.93054 0.11600
N 	N 	0.03117 0.05883 0.93594 -0.14100
C 	C 	0.04081 0.01933 0.47485 0.11500
N 	N 	0.00757 0.04318 0.45722 -0.14000
C 	C 	0.21655 0.09544 0.56239 -0.08100
C 	C 	0.24813 0.12874 0.50401 -0.00800
C 	C 	0.21209 0.13000 0.43879 0.03700
C 	C 	0.14442 0.09571 0.43152 -0.04900
C 	C 	0.11255 0.06119 0.48903 -0.04600
C 	C 	0.14933 0.06358 0.55694 0.06800
C 	C 	0.31878 0.16074 0.51031 0.00600
C 	C 	0.24522 0.16574 0.37541 -0.17700
H 	H 	0.11624 0.09443 0.37995 0.04200
H 	H 	0.24436 0.09435 0.61210 0.04400
C 	C 	0.36475 0.22463 0.54946 0.01900
C 	C 	0.43055 0.25687 0.54401 -0.01200
C 	C 	0.40582 0.16037 0.46791 0.09100
C 	C 	0.33985 0.12842 0.47224 -0.09400
C 	C 	0.34339 0.25942 0.59362 -0.17000
C 	C 	0.42723 0.12553 0.42400 -0.19800
H 	H 	0.30450 0.07897 0.44366 0.04800
H 	H 	0.15323 0.05200 0.67865 0.06500
H 	H 	0.26415 0.14289 0.34406 0.06200
H 	H 	0.28620 0.21599 0.40155 0.06200
H 	H 	0.21122 0.16614 0.33164 0.05800
H 	H 	0.38569 0.30647 0.62794 0.05800
H 	H 	0.31307 0.23126 0.63559 0.06100
H 	H 	0.31463 0.26723 0.55161 0.06100
H 	H 	0.38699 0.07385 0.40543 0.06000
H 	H 	0.04793 0.12238 0.09714 0.07000
H 	H 	0.00544 0.13240 0.16548 0.06800
C 	C 	0.23908 0.13561 0.94709 -0.08400
C 	C 	0.24803 0.09842 0.89535 -0.00400
C 	C 	0.19345 0.04063 0.84886 0.02800
C 	C 	0.13062 0.02012 0.85668 -0.05300
C 	C 	0.12159 0.05472 0.91313 -0.04800
C 	C 	0.17647 0.11331 0.95861 0.07900
C 	C 	0.31451 0.11688 0.89732 0.00600
C 	C 	0.20191 0.99864 0.79497 -0.16200
C 	C 	0.16899 0.15086 0.02165 -0.21300
H 	H 	0.28128 0.18046 0.98166 0.04900
C 	C 	0.35412 0.15622 0.84709 0.02100
C 	C 	0.34086 0.10148 0.95658 -0.09900
C 	C 	0.32778 0.17572 0.78483 -0.17100
H 	H 	0.30956 0.06935 0.99309 0.05300
H 	H 	0.14530 0.17055 0.99443 0.08200
H 	H 	0.21683 0.19144 0.05743 0.06200
H 	H 	0.13951 0.12001 0.06232 0.06800
H 	H 	0.22118 0.97833 0.83044 0.06400
H 	H 	0.23623 0.02635 0.75605 0.05400
H 	H 	0.35788 0.19137 0.73847 0.06000
H 	H 	0.32804 0.21569 0.81212 0.06100
H 	H 	0.27736 0.13565 0.75552 0.05900
C 	C 	0.42062 0.18310 0.86075 -0.01700
C 	C 	0.40798 0.13091 0.97298 0.10600
C 	C 	0.11721 0.03137 0.62294 -0.20000
H 	H 	0.07947 0.03777 0.63373 0.07300
C 	C 	0.45101 0.22560 0.50189 -0.11000
H 	H 	0.44402 0.14550 0.37065 0.05700
H 	H 	0.46564 0.30674 0.57101 0.03600
H 	H 	0.46765 0.13059 0.46214 0.06100
C 	C 	0.44893 0.17486 0.92681 -0.11500
H 	H 	0.45138 0.21454 0.82329 0.03600
C 	C 	0.43527 0.11677 0.04118 -0.21400
H 	H 	0.39627 0.08061 0.06976 0.06200
C 	C 	0.51817 0.26257 0.48799 0.30000
H 	H 	0.46918 0.16065 0.08649 0.07900
H 	H 	0.46083 0.09740 0.02037 0.07800
O 	O 	0.55333 0.20458 0.99318 -0.36300
C 	C 	0.52038 0.22104 0.95455 0.28900
O 	O 	0.55084 0.27951 0.94175 -0.39700
O 	O 	0.56179 0.26205 0.53355 -0.39200
O 	O 	0.53512 0.30312 0.43944 -0.39900
N 	N 	0.00790 0.95592 0.47287 -0.13600
N 	N 	0.01879 0.96351 0.93955 -0.13500
H 	H 	0.09449 0.97977 0.60802 0.07800
H 	H 	0.08857 0.97566 0.82116 0.04900
H 	H 	0.15504 0.95870 0.75671 0.05800
H 	H 	0.59752 0.49750 0.94127 0.07600
H 	H 	0.60683 0.23147 0.86760 0.15700
H 	H 	0.60276 0.24147 0.38838 0.16100
H 	H 	0.61238 0.54563 0.86785 0.06600
H 	H 	0.61810 0.48112 0.85015 0.07700
O 	O 	0.60475 0.31595 0.13052 -0.36300
Cu	Cu	0.61761 0.35784 0.03795 0.88800
C 	C 	0.62772 0.51929 0.89624 -0.20400
Cu	Cu	0.61064 0.33922 0.38435 0.89200
O 	O 	0.63459 0.28735 0.41155 -0.64100
O 	O 	0.64177 0.35178 0.28245 -0.36000
C 	C 	0.99896 0.10233 0.11073 -0.20400
H 	H 	0.97628 0.05338 0.12187 0.06400
C 	C 	0.97089 0.03138 0.95307 0.10900
Cu	Cu	0.65246 0.26093 0.01371 0.91900
Cu	Cu	0.71147 0.25199 0.85868 0.87100
Cu	Cu	0.67625 0.35159 0.90126 0.91000
C 	C 	0.64534 0.30684 0.16625 0.19400
C 	C 	0.71443 0.33381 0.76148 0.19600
O 	O 	0.68549 0.35525 0.01252 -0.64300
O 	O 	0.65074 0.26365 0.89983 -0.62900
O 	O 	0.71569 0.24033 0.03532 -0.38400
O 	O 	0.69251 0.18613 0.91207 -0.43700
O 	O 	0.70692 0.43863 0.90724 -0.37900
C 	C 	0.69516 0.46856 0.95958 0.29500
O 	O 	0.64636 0.43708 0.99733 -0.39600
O 	O 	0.66274 0.27536 0.12673 -0.32400
C 	C 	0.71778 0.20037 0.98669 0.31700
O 	O 	0.67645 0.34553 0.78996 -0.34300
O 	O 	0.75068 0.32551 0.80883 -0.40200
H 	H 	0.72945 0.39036 0.04257 0.15900
Cu	Cu	0.73118 0.33628 0.39371 0.92600
Cu	Cu	0.74773 0.28397 0.55239 0.85700
Cu	Cu	0.65214 0.30674 0.52389 0.89300
C 	C 	0.66010 0.32052 0.24466 0.19300
O 	O 	0.76886 0.42987 0.40066 -0.36600
C 	C 	0.71461 0.32811 0.68457 0.17800
O 	O 	0.74332 0.34667 0.50968 -0.64300
O 	O 	0.77412 0.29411 0.37492 -0.37100
O 	O 	0.71983 0.22621 0.45727 -0.45100
C 	C 	0.74803 0.45573 0.44420 0.29000
O 	O 	0.69312 0.41874 0.46874 -0.39500
O 	O 	0.70223 0.31350 0.28156 -0.32500
C 	C 	0.75661 0.24309 0.40388 0.29700
O 	O 	0.67570 0.33398 0.63751 -0.34500
O 	O 	0.75746 0.32201 0.65807 -0.39600
H 	H 	0.77506 0.39063 0.53992 0.17400
C 	C 	0.86837 0.74349 0.38319 -0.07800
C 	C 	0.85540 0.71986 0.45315 -0.00900
C 	C 	0.86728 0.76016 0.52289 0.03700
C 	C 	0.89336 0.82403 0.52176 -0.05000
C 	C 	0.89323 0.80700 0.38179 0.06500
C 	C 	0.82757 0.65217 0.45233 0.00800
C 	C 	0.85342 0.73561 0.59871 -0.17800
C 	C 	0.90644 0.83141 0.30583 -0.18900
H 	H 	0.85873 0.71225 0.32971 0.04500
C 	C 	0.75997 0.60402 0.42876 0.01900
C 	C 	0.73502 0.54011 0.42601 -0.01200
C 	C 	0.77637 0.52363 0.44810 -0.11100
C 	C 	0.84387 0.57200 0.47385 0.09700
C 	C 	0.86909 0.63589 0.47418 -0.09600
C 	C 	0.71446 0.62050 0.40509 -0.16900
H 	H 	0.68330 0.50295 0.40605 0.02300
C 	C 	0.88917 0.55591 0.50045 -0.20100
H 	H 	0.92100 0.67306 0.49211 0.04900
H 	H 	0.88154 0.85354 0.29386 0.06800
H 	H 	0.88837 0.79255 0.25513 0.06000
H 	H 	0.88578 0.72243 0.61729 0.06200
H 	H 	0.80187 0.69316 0.59073 0.06300
H 	H 	0.86176 0.77195 0.64675 0.05900
H 	H 	0.66264 0.57809 0.39436 0.05500
H 	H 	0.72453 0.64013 0.35028 0.06100
H 	H 	0.72113 0.65631 0.45238 0.06100
H 	H 	0.93777 0.59912 0.53087 0.06200
H 	H 	0.89583 0.53353 0.44884 0.07200
H 	H 	0.86908 0.52272 0.54238 0.06300
C 	C 	0.87163 0.19889 0.39564 -0.09500
C 	C 	0.82710 0.13233 0.37702 0.00600
C 	C 	0.76009 0.10324 0.35389 0.01800
C 	C 	0.73812 0.14102 0.35655 -0.01300
C 	C 	0.78215 0.20733 0.38142 -0.11600
C 	C 	0.84977 0.23679 0.39808 0.08900
C 	C 	0.85047 0.09345 0.38918 -0.01000
C 	C 	0.71152 0.03182 0.33094 -0.16800
H 	H 	0.68636 0.11854 0.34268 0.03200
C 	C 	0.89855 0.30819 0.42149 -0.19700
H 	H 	0.92323 0.22109 0.41119 0.04800
C 	C 	0.87627 0.07857 0.33064 0.03600
C 	C 	0.90457 0.04777 0.34721 -0.05100
C 	C 	0.90574 0.03015 0.42046 -0.04600
C 	C 	0.87720 0.04237 0.47763 0.06500
C 	C 	0.84992 0.07414 0.46155 -0.07900
C 	C 	0.87676 0.09820 0.25211 -0.17800
H 	H 	0.92663 0.03839 0.30351 0.03700
H 	H 	0.82928 0.08493 0.50592 0.04200
H 	H 	0.94932 0.32349 0.43331 0.05900
H 	H 	0.88965 0.32541 0.47575 0.04600
H 	H 	0.89455 0.33108 0.37335 0.07600
H 	H 	0.70632 0.01007 0.38387 0.05700
H 	H 	0.72789 0.01284 0.28767 0.05900
H 	H 	0.66291 0.01723 0.30346 0.05500
H 	H 	0.88670 0.07279 0.20844 0.05700
H 	H 	0.91503 0.15022 0.25877 0.06200
H 	H 	0.82882 0.08671 0.22822 0.06300
C 	C 	0.85128 0.78150 0.02852 -0.08600
C 	C 	0.83947 0.73717 0.96467 -0.00200
C 	C 	0.86565 0.75795 0.89691 0.03800
C 	C 	0.80133 0.66913 0.97012 0.01500
C 	C 	0.85272 0.71084 0.82715 -0.17800
H 	H 	0.83081 0.76516 0.08025 0.04400
C 	C 	0.83211 0.64425 0.00346 0.01500
C 	C 	0.79614 0.57847 0.00084 -0.02600
C 	C 	0.73004 0.53749 0.96594 -0.10200
C 	C 	0.69882 0.56254 0.93428 0.10100
C 	C 	0.73467 0.62846 0.93775 -0.09700
C 	C 	0.90340 0.68755 0.04067 -0.18000
H 	H 	0.81975 0.55897 0.02530 0.02600
H 	H 	0.71117 0.64802 0.91317 0.05200
H 	H 	0.79994 0.67887 0.80131 0.06500
H 	H 	0.86840 0.68189 0.84551 0.06600
H 	H 	0.87968 0.73503 0.78071 0.05800
H 	H 	0.91999 0.66074 0.06460 0.05700
H 	H 	0.91241 0.72345 0.08988 0.06100
H 	H 	0.93306 0.71231 0.99638 0.06900
C 	C 	0.87026 0.21086 0.00814 -0.09200
C 	C 	0.84434 0.14757 0.01168 -0.00800
C 	C 	0.78003 0.10564 0.02446 0.02400
C 	C 	0.73973 0.12517 0.02209 -0.01100
C 	C 	0.76388 0.18666 0.01061 -0.12700
C 	C 	0.83061 0.23103 0.00828 0.09100
C 	C 	0.88257 0.12404 0.99455 0.01300
C 	C 	0.75292 0.03887 0.03524 -0.18300
H 	H 	0.68887 0.09165 0.02571 0.02900
C 	C 	0.85858 0.29861 0.00061 -0.20600
H 	H 	0.92044 0.24356 0.00138 0.04400
C 	C 	0.87546 0.09580 0.91734 0.03100
C 	C 	0.90734 0.06816 0.90400 -0.04800
C 	C 	0.94660 0.06912 0.96642 -0.04000
C 	C 	0.95674 0.10068 0.04280 0.06000
C 	C 	0.92525 0.12875 0.05598 -0.09500
C 	C 	0.83288 0.09382 0.84951 -0.17200
H 	H 	0.93282 0.15310 0.11436 0.04700
H 	H 	0.83836 0.29924 0.94178 0.03700
H 	H 	0.91248 0.32880 0.00767 0.06000
H 	H 	0.84651 0.32017 0.04671 0.06800
H 	H 	0.78836 0.03923 0.07730 0.06200
H 	H 	0.74227 0.00912 0.97791 0.06700
H 	H 	0.70732 0.01666 0.05909 0.05700
H 	H 	0.84795 0.14257 0.84739 0.05900
C 	C 	0.90689 0.84777 0.45195 -0.04500
H 	H 	0.90427 0.85563 0.57556 0.04000
H 	H 	0.95963 0.86745 0.30992 0.06800
C 	C 	0.90369 0.82305 0.89432 -0.05100
C 	C 	0.91659 0.86758 0.95870 -0.03500
C 	C 	0.89086 0.84683 0.02684 0.05500
H 	H 	0.92336 0.83918 0.84210 0.04100
C 	C 	0.90528 0.89394 0.09764 -0.18600
H 	H 	0.89020 0.87113 0.14965 0.06000
H 	H 	0.90024 0.04439 0.84535 0.03900
H 	H 	0.78124 0.06302 0.85642 0.06000
H 	H 	0.92816 0.04778 0.58742 0.06800
H 	H 	0.83650 0.07460 0.79230 0.05400
H 	H 	0.85280 0.03583 0.59450 0.06000
H 	H 	0.87847 0.91404 0.08479 0.06800
C 	C 	0.94193 0.91649 0.45470 0.11500
H 	H 	0.95832 0.93312 0.11351 0.06400
C 	C 	0.87730 0.02319 0.55645 -0.19700
C 	C 	0.95790 0.93560 0.95452 0.11500
N 	N 	0.90862 0.94042 0.43767 -0.14100
C 	C 	0.94150 0.00387 0.43901 0.10800
N 	N 	0.93390 0.96949 0.96088 -0.13800
H 	H 	0.85115 0.97089 0.54834 0.07600
