data_crystal

_cell_length_a 18.46803
_cell_length_b 18.81703
_cell_length_c 34.77383
_cell_angle_alpha 95.41478
_cell_angle_beta  95.41563
_cell_angle_gamma 126.42436

_symmetry_space_group_name_	'P 1'
_symmetry_space_group_name_H-M	'P 1'

loop_
_symmetry_equiv_pos_as_xyz
  x,y,z

loop_
_atom_site_label
_atom_site_type_symbol
_atom_site_fract_x
_atom_site_fract_y
_atom_site_fract_z
_atom_site_charge
C 	C 	0.90420 0.00249 0.96376 0.11300
N 	N 	0.85845 0.91317 0.96422 -0.13700
C 	C 	0.90410 0.87697 0.96315 0.11900
N 	N 	0.99468 0.92995 0.96197 -0.13400
C 	C 	0.04016 0.01874 0.96185 0.10700
N 	N 	0.99476 0.05473 0.96227 -0.13700
C 	C 	0.94579 0.02721 0.49415 0.11800
N 	N 	0.89387 0.93653 0.48975 -0.13900
C 	C 	0.93407 0.89542 0.49144 0.12300
N 	N 	0.02677 0.94546 0.49794 -0.14200
C 	C 	0.07891 0.03595 0.50073 0.11200
N 	N 	0.03846 0.07709 0.49900 -0.14500
Cu	Cu	0.75810 0.35006 0.96106 0.92700
Cu	Cu	0.74682 0.29198 0.04749 0.86800
Cu	Cu	0.61242 0.31156 0.00886 0.89800
Cu	Cu	0.58534 0.33528 0.92637 0.89300
C 	C 	0.69599 0.31026 0.87724 0.29100
O 	O 	0.80809 0.47879 0.95595 -0.36000
C 	C 	0.66255 0.34418 0.09526 0.28400
O 	O 	0.61514 0.27432 0.95594 -0.64000
O 	O 	0.74645 0.37157 0.01600 -0.64100
O 	O 	0.82213 0.29489 0.96983 -0.37100
O 	O 	0.72200 0.20164 0.00671 -0.43900
O 	O 	0.65438 0.34698 0.88333 -0.39100
O 	O 	0.48089 0.24405 0.00021 -0.38000
C 	C 	0.42860 0.23273 0.96791 0.29700
C 	C 	0.76419 0.51139 0.96541 0.28600
O 	O 	0.67889 0.45668 0.96982 -0.39600
O 	O 	0.46346 0.28248 0.94078 -0.39600
O 	O 	0.74610 0.30920 0.90658 -0.36700
C 	C 	0.78187 0.22024 0.98410 0.29200
O 	O 	0.61242 0.34188 0.06459 -0.37300
O 	O 	0.73739 0.35185 0.09203 -0.41500
H 	H 	0.57676 0.20840 0.94684 0.16100
H 	H 	0.78492 0.43534 0.02936 0.17600
Cu	Cu	0.61671 0.19728 0.50955 0.92800
Cu	Cu	0.65300 0.18539 0.41961 0.87100
Cu	Cu	0.65248 0.33310 0.45760 0.89700
Cu	Cu	0.64943 0.37774 0.54206 0.89700
C 	C 	0.67465 0.27211 0.59213 0.29200
O 	O 	0.49289 0.16113 0.51910 -0.36500
C 	C 	0.60296 0.26758 0.37111 0.28600
O 	O 	0.69899 0.33626 0.51035 -0.63600
O 	O 	0.58564 0.20107 0.45416 -0.64000
O 	O 	0.66231 0.12529 0.50004 -0.37400
O 	O 	0.74914 0.21176 0.45801 -0.44100
O 	O 	0.63628 0.31171 0.58568 -0.38500
O 	O 	0.72471 0.46226 0.46312 -0.38300
C 	C 	0.73059 0.51764 0.49189 0.29800
C 	C 	0.46165 0.20492 0.50801 0.28600
O 	O 	0.51867 0.28778 0.50227 -0.39900
O 	O 	0.71834 0.49829 0.52741 -0.39200
O 	O 	0.66677 0.21499 0.56367 -0.36300
C 	C 	0.73169 0.15561 0.48175 0.29700
O 	O 	0.62171 0.32896 0.40088 -0.37300
O 	O 	0.58575 0.19120 0.37685 -0.41900
H 	H 	0.76638 0.37098 0.51684 0.17100
H 	H 	0.51932 0.16504 0.44331 0.17300
C 	C 	0.62499 0.22952 0.76745 -0.04300
C 	C 	0.70973 0.26367 0.75598 0.02100
C 	C 	0.78860 0.30478 0.78485 -0.06300
C 	C 	0.78505 0.31773 0.82481 0.02400
C 	C 	0.70054 0.28602 0.83625 -0.08600
C 	C 	0.62066 0.23922 0.80740 0.00800
C 	C 	0.71867 0.26771 0.71409 0.02000
C 	C 	0.75980 0.35029 0.70166 -0.06100
C 	C 	0.75407 0.35357 0.66152 0.02400
C 	C 	0.70413 0.27311 0.63335 -0.08200
C 	C 	0.67110 0.19166 0.64583 0.01100
C 	C 	0.67930 0.18886 0.68608 -0.04100
C 	C 	0.79966 0.43971 0.64943 0.05800
C 	C 	0.64570 0.10474 0.69839 0.08800
C 	C 	0.54290 0.18808 0.73835 0.08600
C 	C 	0.86918 0.36800 0.85349 0.07300
N 	N 	0.83617 0.50870 0.63974 -0.12200
N 	N 	0.61876 0.03736 0.70829 -0.12100
N 	N 	0.93664 0.40830 0.87642 -0.11200
N 	N 	0.47719 0.15492 0.71502 -0.12200
H 	H 	0.55550 0.21365 0.81604 0.02600
H 	H 	0.85368 0.33062 0.77607 0.05100
H 	H 	0.79371 0.41164 0.72324 0.05100
H 	H 	0.63551 0.12997 0.62431 0.04300
C 	C 	0.70006 0.41531 0.20460 -0.04200
C 	C 	0.61769 0.34171 0.21333 0.01900
C 	C 	0.54433 0.27857 0.18257 -0.06100
C 	C 	0.55572 0.28293 0.14335 0.02000
C 	C 	0.64173 0.35093 0.13481 -0.08200
C 	C 	0.71196 0.41918 0.16545 0.01000
C 	C 	0.61311 0.32229 0.25375 0.02100
C 	C 	0.56845 0.34267 0.27774 -0.06200
C 	C 	0.56327 0.32416 0.31600 0.02600
C 	C 	0.60453 0.28600 0.33063 -0.08700
C 	C 	0.64831 0.26496 0.30634 0.00800
C 	C 	0.65222 0.28222 0.26805 -0.04400
C 	C 	0.51253 0.34116 0.33928 0.07300
C 	C 	0.69624 0.25824 0.24348 0.08300
C 	C 	0.77380 0.48531 0.23576 0.08600
C 	C 	0.48006 0.21527 0.11221 0.06300
N 	N 	0.47186 0.35477 0.35792 -0.11500
N 	N 	0.73148 0.23910 0.22377 -0.12500
N 	N 	0.41943 0.16113 0.08726 -0.11600
N 	N 	0.83285 0.54133 0.26076 -0.12100
H 	H 	0.77701 0.47350 0.15890 0.03700
H 	H 	0.47994 0.22339 0.18923 0.04800
H 	H 	0.53723 0.37234 0.26653 0.05000
H 	H 	0.67991 0.23551 0.31740 0.02100
C 	C 	0.80314 0.75453 0.50803 -0.07000
C 	C 	0.87698 0.79699 0.48809 -0.02600
C 	C 	0.89393 0.74463 0.46451 0.04800
C 	C 	0.84476 0.65287 0.46567 -0.02100
C 	C 	0.77361 0.61121 0.48716 -0.09800
C 	C 	0.74835 0.66131 0.50603 0.09300
C 	C 	0.66387 0.61634 0.52434 -0.19900
H 	H 	0.78809 0.79411 0.52506 0.05500
H 	H 	0.86260 0.61411 0.45016 0.04700
C 	C 	0.96389 0.78566 0.43815 -0.17500
H 	H 	0.63870 0.65725 0.52653 0.07000
H 	H 	0.68006 0.60814 0.55440 0.07600
H 	H 	0.60729 0.54961 0.50623 0.07100
H 	H 	0.03377 0.82198 0.45577 0.06900
H 	H 	0.95955 0.83273 0.42298 0.07000
H 	H 	0.95210 0.73319 0.41494 0.06700
C 	C 	0.85134 0.05608 0.45420 -0.06700
C 	C 	0.90076 0.07011 0.49088 -0.02800
C 	C 	0.89361 0.11132 0.52489 0.04600
C 	C 	0.83551 0.13638 0.52166 -0.02100
C 	C 	0.78486 0.12083 0.48501 -0.10400
C 	C 	0.79123 0.07846 0.45110 0.08500
C 	C 	0.73424 0.05701 0.41155 -0.19100
H 	H 	0.85685 0.02413 0.42820 0.04800
H 	H 	0.83049 0.16892 0.54761 0.04400
C 	C 	0.94608 0.12673 0.56468 -0.17600
H 	H 	0.73125 0.00671 0.39049 0.06300
H 	H 	0.76458 0.11910 0.39905 0.04600
H 	H 	0.66269 0.02821 0.41438 0.04000
H 	H 	0.02048 0.16758 0.56412 0.06800
H 	H 	0.92238 0.06119 0.57257 0.07100
H 	H 	0.93627 0.16321 0.58805 0.06700
C 	C 	0.30826 0.14060 0.47025 -0.02500
C 	C 	0.36455 0.16518 0.50660 -0.10300
C 	C 	0.32839 0.15434 0.54149 0.09200
C 	C 	0.23511 0.11504 0.53921 -0.07200
C 	C 	0.17823 0.08807 0.50276 -0.02700
C 	C 	0.21519 0.10221 0.46803 0.04700
C 	C 	0.15498 0.07352 0.42851 -0.18700
H 	H 	0.33670 0.15040 0.44362 0.03400
H 	H 	0.20635 0.10397 0.56577 0.05000
C 	C 	0.38869 0.18381 0.58110 -0.20300
H 	H 	0.19546 0.09555 0.40463 0.06600
H 	H 	0.11834 0.10359 0.42884 0.07200
H 	H 	0.10413 0.99910 0.42156 0.07100
H 	H 	0.44976 0.25517 0.58478 0.07300
H 	H 	0.41121 0.14103 0.58361 0.08900
H 	H 	0.35208 0.17831 0.60558 0.07300
C 	C 	0.83855 0.72425 0.92839 -0.07000
C 	C 	0.85621 0.78047 0.96322 -0.02500
C 	C 	0.84593 0.74873 0.99905 0.04700
C 	C 	0.82060 0.66206 0.99960 -0.02300
C 	C 	0.80492 0.60655 0.96488 -0.10100
C 	C 	0.81357 0.63778 0.92890 0.09200
C 	C 	0.79303 0.57816 0.89081 -0.20400
H 	H 	0.84698 0.74897 0.90096 0.05200
H 	H 	0.81185 0.63728 0.02702 0.03600
C 	C 	0.86328 0.80751 0.03679 -0.18100
H 	H 	0.80847 0.61444 0.86576 0.07300
H 	H 	0.71930 0.51970 0.88413 0.07300
H 	H 	0.83528 0.55415 0.89296 0.09100
H 	H 	0.81882 0.82891 0.03363 0.06900
H 	H 	0.93621 0.86796 0.04386 0.07000
H 	H 	0.84817 0.77153 0.06193 0.06500
C 	C 	0.83128 0.06694 0.93552 -0.07400
C 	C 	0.85846 0.04486 0.96853 -0.02400
C 	C 	0.85790 0.07840 0.00648 0.04300
C 	C 	0.83443 0.13699 0.01099 -0.02100
C 	C 	0.80991 0.16139 0.97810 -0.10800
C 	C 	0.80577 0.12405 0.93993 0.09800
C 	C 	0.77609 0.14598 0.90391 -0.20700
H 	H 	0.83242 0.04166 0.90642 0.05300
H 	H 	0.83596 0.16429 0.04021 0.02100
C 	C 	0.88611 0.05501 0.04237 -0.18400
H 	H 	0.76415 0.10189 0.87658 0.07400
H 	H 	0.83011 0.21676 0.90166 0.09700
H 	H 	0.71097 0.13612 0.90550 0.08000
H 	H 	0.96015 0.08583 0.04613 0.06600
H 	H 	0.84576 0.98092 0.03911 0.07200
H 	H 	0.87415 0.07971 0.06951 0.06100
C 	C 	0.17298 0.06228 0.93111 -0.07000
C 	C 	0.13928 0.07637 0.96305 -0.02500
C 	C 	0.20075 0.14060 0.99706 0.04700
C 	C 	0.29532 0.19165 0.99805 -0.02000
C 	C 	0.32912 0.17745 0.96612 -0.09900
C 	C 	0.26754 0.11099 0.93266 0.08800
C 	C 	0.30210 0.09198 0.89853 -0.19600
H 	H 	0.12538 0.01226 0.90524 0.05000
H 	H 	0.34280 0.24266 0.02368 0.05000
C 	C 	0.16591 0.15516 0.03222 -0.17900
H 	H 	0.24643 0.02795 0.87834 0.06600
H 	H 	0.35640 0.08577 0.90922 0.06000
H 	H 	0.33009 0.14721 0.88153 0.06900
H 	H 	0.11561 0.09004 0.04111 0.06600
H 	H 	0.13268 0.18687 0.02486 0.06900
H 	H 	0.22232 0.19974 0.05796 0.06600
