data_crystal

_cell_length_a 27.69146
_cell_length_b 28.10788
_cell_length_c 40.18552
_cell_angle_alpha 95.55218
_cell_angle_beta  95.54945
_cell_angle_gamma 125.52397

_symmetry_space_group_name_	'P 1'
_symmetry_space_group_name_H-M	'P 1'

loop_
_symmetry_equiv_pos_as_xyz
  x,y,z

loop_
_atom_site_label
_atom_site_type_symbol
_atom_site_fract_x
_atom_site_fract_y
_atom_site_fract_z
_atom_site_charge
C 	C 	0.97676 0.03494 0.99626 0.12800
N 	N 	0.03598 0.06495 0.99400 -0.14000
C 	C 	0.06092 0.03538 0.99136 0.13000
C 	C 	0.93839 0.99718 0.46049 0.13700
C 	C 	0.02848 0.00596 0.46302 0.13100
N 	N 	0.99868 0.03071 0.46073 -0.14300
O 	O 	0.56356 0.22299 0.00386 -0.36400
O 	O 	0.68814 0.21424 0.99955 -0.37400
O 	O 	0.75207 0.27398 0.96642 -0.44200
C 	C 	0.73785 0.23649 0.98722 0.31000
H 	H 	0.59798 0.23850 0.94209 0.17300
O 	O 	0.71036 0.23288 0.49052 -0.44500
O 	O 	0.55045 0.26347 0.49633 -0.38400
C 	C 	0.51611 0.26312 0.47094 0.31000
C 	C 	0.75005 0.24838 0.47071 0.31000
H 	H 	0.61118 0.24538 0.44518 0.16400
C 	C 	0.59293 0.26461 0.79001 -0.07100
C 	C 	0.59771 0.26144 0.82456 0.01700
C 	C 	0.66482 0.28358 0.66501 -0.07200
C 	C 	0.67334 0.28343 0.63134 0.01700
H 	H 	0.56002 0.22455 0.77131 0.04800
H 	H 	0.56804 0.21906 0.83228 0.02900
H 	H 	0.67415 0.25918 0.68036 0.04700
H 	H 	0.68885 0.25862 0.62088 0.01800
C 	C 	0.81179 0.14757 0.46010 -0.01200
C 	C 	0.83709 0.14347 0.43237 -0.02800
C 	C 	0.85916 0.10948 0.43127 -0.04400
C 	C 	0.85600 0.07950 0.45789 0.01600
C 	C 	0.82954 0.08265 0.48523 -0.04400
C 	C 	0.80749 0.11655 0.48633 -0.02900
C 	C 	0.88415 0.04952 0.45855 0.00600
C 	C 	0.90765 0.02439 0.45921 -0.04200
C 	C 	0.79106 0.18428 0.46210 0.04800
C 	C 	0.77299 0.21427 0.46515 -0.12000
H 	H 	0.84031 0.16705 0.41191 0.04100
H 	H 	0.87962 0.10735 0.41005 0.04500
H 	H 	0.82704 0.05974 0.50593 0.04300
H 	H 	0.78774 0.11928 0.50777 0.03400
C 	C 	0.33493 0.16944 0.46864 -0.00900
C 	C 	0.31153 0.15588 0.49856 -0.02800
C 	C 	0.24930 0.12394 0.49735 -0.04300
C 	C 	0.21026 0.10547 0.46621 0.01700
C 	C 	0.23370 0.11934 0.43631 -0.04300
C 	C 	0.29593 0.15128 0.43753 -0.02900
C 	C 	0.14605 0.07068 0.46480 0.00500
C 	C 	0.09236 0.04157 0.46389 -0.03800
C 	C 	0.39896 0.20231 0.46984 0.04800
C 	C 	0.45248 0.22982 0.47051 -0.10800
H 	H 	0.34145 0.16992 0.52271 0.04100
H 	H 	0.23146 0.11328 0.52055 0.04500
H 	H 	0.20377 0.10513 0.41214 0.04500
H 	H 	0.31375 0.16176 0.41431 0.03900
C 	C 	0.83591 0.17132 0.99813 -0.01200
C 	C 	0.87673 0.18411 0.97621 -0.02900
C 	C 	0.90762 0.15866 0.97695 -0.04500
C 	C 	0.89785 0.12033 0.99962 0.01800
C 	C 	0.85818 0.10871 0.02216 -0.04500
C 	C 	0.82725 0.13416 0.02141 -0.02800
C 	C 	0.92604 0.09052 0.99855 0.00300
C 	C 	0.94961 0.06554 0.99767 -0.03700
C 	C 	0.80060 0.19371 0.99535 0.04900
C 	C 	0.77181 0.21322 0.99231 -0.12100
H 	H 	0.88373 0.21289 0.95820 0.03600
H 	H 	0.93832 0.16795 0.95951 0.04400
H 	H 	0.85054 0.07923 0.03982 0.04500
H 	H 	0.79587 0.12419 0.03849 0.04000
C 	C 	0.35934 0.16865 0.98365 -0.01000
C 	C 	0.31707 0.10660 0.97761 -0.02800
C 	C 	0.25620 0.08087 0.97793 -0.04400
C 	C 	0.23739 0.11709 0.98429 0.01700
C 	C 	0.27942 0.17912 0.98953 -0.04400
C 	C 	0.34032 0.20487 0.98921 -0.02800
C 	C 	0.17551 0.09053 0.98692 0.00400
C 	C 	0.12332 0.06655 0.98892 -0.03800
C 	C 	0.42260 0.19525 0.98604 0.04800
C 	C 	0.47580 0.21853 0.98817 -0.11100
H 	H 	0.33145 0.07835 0.97325 0.03900
H 	H 	0.22386 0.03284 0.97376 0.04500
H 	H 	0.26516 0.20739 0.99437 0.04500
H 	H 	0.37279 0.25291 0.99383 0.03900
N 	N 	0.02675 0.97604 0.99095 -0.13800
C 	C 	0.96768 0.94606 0.99317 0.13400
N 	N 	0.94258 0.97544 0.99580 -0.13800
N 	N 	0.90786 0.93870 0.46270 -0.14000
C 	C 	0.93789 0.91401 0.46496 0.13300
N 	N 	0.99810 0.94772 0.46513 -0.13900
Cu	Cu	0.65112 0.25733 0.00288 0.92800
Cu	Cu	0.69311 0.25668 0.92927 0.87100
Cu	Cu	0.68215 0.35046 0.95854 0.89800
Cu	Cu	0.65299 0.36814 0.02649 0.89500
C 	C 	0.67261 0.30321 0.07416 0.28900
C 	C 	0.65575 0.30643 0.88410 0.28900
O 	O 	0.69971 0.34979 0.00572 -0.64100
O 	O 	0.64039 0.26287 0.95438 -0.64100
O 	O 	0.64503 0.32732 0.06589 -0.38300
O 	O 	0.72724 0.43616 0.96574 -0.38300
C 	C 	0.72371 0.46900 0.98978 0.31100
C 	C 	0.53954 0.24802 0.99162 0.30300
O 	O 	0.57448 0.30336 0.98750 -0.39400
O 	O 	0.68598 0.44526 0.01113 -0.39500
O 	O 	0.67398 0.26735 0.05104 -0.36100
O 	O 	0.67824 0.35205 0.90931 -0.38500
O 	O 	0.65231 0.25895 0.88910 -0.41900
H 	H 	0.74327 0.37541 0.01597 0.16500
Cu	Cu	0.73142 0.33655 0.45794 0.92700
Cu	Cu	0.72749 0.28814 0.52916 0.86900
Cu	Cu	0.63733 0.30660 0.50262 0.89700
Cu	Cu	0.61848 0.33452 0.43478 0.89500
C 	C 	0.68558 0.31786 0.38679 0.29000
O 	O 	0.76611 0.42345 0.45823 -0.36100
C 	C 	0.67420 0.31720 0.57631 0.28600
O 	O 	0.63739 0.28837 0.45528 -0.64000
O 	O 	0.72570 0.34507 0.50657 -0.64000
O 	O 	0.77450 0.29901 0.46000 -0.37300
O 	O 	0.66074 0.34442 0.39555 -0.38400
C 	C 	0.73971 0.44626 0.47026 0.30100
O 	O 	0.68362 0.41094 0.47443 -0.39500
O 	O 	0.53932 0.29996 0.44936 -0.39400
O 	O 	0.72153 0.31562 0.40967 -0.36200
O 	O 	0.63818 0.31722 0.55206 -0.37800
O 	O 	0.72357 0.32369 0.57058 -0.41900
H 	H 	0.75176 0.38627 0.51981 0.17600
C 	C 	0.64257 0.31227 0.84890 -0.09000
C 	C 	0.67941 0.36723 0.83854 0.01600
C 	C 	0.67462 0.37025 0.80394 -0.07000
C 	C 	0.63286 0.31852 0.77953 0.03900
C 	C 	0.63705 0.31880 0.74409 -0.02100
C 	C 	0.63991 0.31819 0.71431 -0.02200
C 	C 	0.64518 0.31573 0.67898 0.04000
C 	C 	0.66211 0.31535 0.61124 -0.09100
C 	C 	0.64111 0.34657 0.62501 0.02100
C 	C 	0.63288 0.34690 0.65888 -0.07100
H 	H 	0.71379 0.40695 0.85706 0.03600
H 	H 	0.70530 0.41224 0.79605 0.04900
H 	H 	0.63237 0.37146 0.60979 0.03600
H 	H 	0.61762 0.37185 0.66953 0.05000
C 	C 	0.68568 0.30466 0.35038 -0.08500
C 	C 	0.73857 0.31826 0.33973 0.02000
C 	C 	0.74089 0.31338 0.30502 -0.06900
C 	C 	0.69040 0.29468 0.28078 0.04000
C 	C 	0.63673 0.27834 0.29126 -0.06900
C 	C 	0.63433 0.28328 0.32592 0.01700
C 	C 	0.69507 0.29708 0.24550 -0.02000
C 	C 	0.69770 0.29867 0.21581 -0.02000
C 	C 	0.69972 0.30171 0.18035 0.04000
C 	C 	0.71928 0.35496 0.16932 -0.06900
C 	C 	0.71334 0.35615 0.13454 0.01700
C 	C 	0.68779 0.30403 0.11048 -0.08500
C 	C 	0.67112 0.25140 0.12161 0.02000
C 	C 	0.67691 0.25026 0.15646 -0.06900
H 	H 	0.77851 0.33470 0.35829 0.04100
H 	H 	0.78246 0.32580 0.29708 0.05100
H 	H 	0.59736 0.26338 0.27263 0.04900
H 	H 	0.59301 0.27181 0.33377 0.02400
H 	H 	0.73737 0.39502 0.18766 0.04900
H 	H 	0.72707 0.39718 0.12627 0.02300
H 	H 	0.65142 0.21087 0.10333 0.04000
H 	H 	0.66194 0.20897 0.16481 0.05100
C 	C 	0.81185 0.62169 0.47399 -0.00800
C 	C 	0.87285 0.66743 0.48740 -0.02800
C 	C 	0.89596 0.72667 0.48664 -0.04300
C 	C 	0.85816 0.74044 0.47246 0.01700
C 	C 	0.79690 0.69479 0.45961 -0.04300
C 	C 	0.77378 0.63553 0.46038 -0.02800
C 	C 	0.88324 0.80101 0.46935 0.00500
C 	C 	0.90644 0.85235 0.46734 -0.03700
C 	C 	0.78853 0.56039 0.47331 0.04700
C 	C 	0.76748 0.50863 0.47232 -0.10800
H 	H 	0.90252 0.65713 0.49805 0.04000
H 	H 	0.94339 0.76173 0.49662 0.04500
H 	H 	0.76740 0.70504 0.44859 0.04500
H 	H 	0.72650 0.60041 0.45006 0.03900
C 	C 	0.87027 0.76722 0.98943 0.01800
C 	C 	0.89019 0.73681 0.97331 -0.04300
C 	C 	0.85996 0.67601 0.97293 -0.02800
C 	C 	0.80970 0.64537 0.98868 -0.00800
C 	C 	0.78932 0.67561 0.00447 -0.02900
C 	C 	0.81959 0.73647 0.00485 -0.04400
C 	C 	0.77957 0.58314 0.98899 0.04800
C 	C 	0.75436 0.53101 0.98925 -0.10800
C 	C 	0.90320 0.83032 0.99113 0.00500
C 	C 	0.93173 0.88315 0.99214 -0.03800
H 	H 	0.92938 0.76036 0.96135 0.04500
H 	H 	0.87585 0.65285 0.96062 0.04000
H 	H 	0.75038 0.65212 0.01663 0.04000
H 	H 	0.80397 0.75973 0.01736 0.04500
