data_crystal

_cell_length_a 13.01037
_cell_length_b 16.76992
_cell_length_c 45.71758
_cell_angle_alpha 90.21062
_cell_angle_beta  90.22101
_cell_angle_gamma 119.34866

_symmetry_space_group_name_	'P 1'
_symmetry_space_group_name_H-M	'P 1'

loop_
_symmetry_equiv_pos_as_xyz
  x,y,z

loop_
_atom_site_label
_atom_site_type_symbol
_atom_site_fract_x
_atom_site_fract_y
_atom_site_fract_z
_atom_site_charge
C 	C 	0.19177 0.95870 0.75959 0.28100
C 	C 	0.07984 0.91594 0.83589 0.30000
Ni	Ni	0.99608 0.97689 0.78157 1.10700
Ni	Ni	0.99932 0.78981 0.78631 1.10800
O 	O 	0.11460 0.98410 0.75281 -0.38400
O 	O 	0.02081 0.82876 0.82810 -0.38700
O 	O 	0.09631 0.98364 0.81756 -0.37500
O 	O 	0.16612 0.89273 0.77867 -0.38100
C 	C 	0.06232 0.53948 0.43754 0.29800
C 	C 	0.27222 0.58028 0.37687 0.31600
Ni	Ni	0.21141 0.71414 0.40555 1.11500
O 	O 	0.06384 0.60904 0.42347 -0.37800
O 	O 	0.15010 0.51877 0.43465 -0.37800
O 	O 	0.36946 0.80427 0.38737 -0.39300
O 	O 	0.19910 0.61271 0.37691 -0.38300
O 	O 	0.35870 0.61070 0.39563 -0.40300
O 	O 	0.18747 0.81706 0.42604 -0.37500
C 	C 	0.20083 0.50582 0.16331 0.29200
C 	C 	0.26029 0.72915 0.05991 0.32600
C 	C 	0.15895 0.74607 0.14179 0.27600
Ni	Ni	0.19184 0.60381 0.10861 1.11500
O 	O 	0.17173 0.67481 0.07621 -0.40300
O 	O 	0.28314 0.56650 0.07968 -0.37700
O 	O 	0.11268 0.65610 0.13559 -0.37200
O 	O 	0.16578 0.49889 0.13577 -0.38500
O 	O 	0.34550 0.80416 0.07104 -0.38800
C 	C 	0.10997 0.95653 0.23312 0.27600
C 	C 	0.22443 0.26198 0.31879 0.30300
C 	C 	0.25771 0.02371 0.30887 0.31700
C 	C 	0.07531 0.23331 0.24857 0.29600
Ni	Ni	0.21248 0.14165 0.26801 1.11300
O 	O 	0.20187 0.03948 0.23861 -0.35200
O 	O 	0.01124 0.92278 0.24814 -0.38900
O 	O 	0.26570 0.26180 0.29256 -0.37400
O 	O 	0.30071 0.10614 0.29821 -0.38300
O 	O 	0.16708 0.95363 0.29593 -0.39800
O 	O 	0.13814 0.19511 0.23949 -0.37400
O 	O 	0.04655 0.23166 0.27680 -0.37400
O 	O 	0.05876 0.06832 0.28290 -0.70000
C 	C 	0.13501 0.45663 0.21423 -0.04900
C 	C 	0.12741 0.43263 0.18453 -0.07300
C 	C 	0.06995 0.33844 0.17666 0.04800
C 	C 	0.03715 0.27196 0.19871 0.00600
C 	C 	0.06378 0.29779 0.22823 -0.09900
C 	C 	0.10473 0.39046 0.23619 0.08800
C 	C 	0.12353 0.42066 0.26777 -0.20000
H 	H 	0.99877 0.20032 0.19270 0.01600
C 	C 	0.04584 0.30803 0.14508 -0.11400
H 	H 	0.19748 0.41359 0.27706 0.08800
H 	H 	0.04168 0.37960 0.28043 0.08300
H 	H 	0.13012 0.33187 0.13322 0.07100
H 	H 	0.99242 0.33521 0.13454 0.03800
H 	H 	0.99511 0.23228 0.14303 0.03300
C 	C 	0.14628 0.83155 0.21650 -0.04100
C 	C 	0.11758 0.89963 0.20940 -0.08300
C 	C 	0.07646 0.90184 0.18094 0.07300
C 	C 	0.07183 0.83937 0.15957 -0.03700
C 	C 	0.11098 0.77662 0.16600 -0.08300
C 	C 	0.13963 0.76820 0.19525 0.07500
C 	C 	0.16997 0.69541 0.20360 -0.20100
H 	H 	0.17256 0.82713 0.23872 0.04300
H 	H 	0.04653 0.84437 0.13731 0.04800
C 	C 	0.04407 0.97389 0.17276 -0.19000
H 	H 	0.16316 0.68392 0.22761 0.06900
H 	H 	0.10808 0.62936 0.19292 0.07900
H 	H 	0.12423 0.04238 0.17325 0.08900
C 	C 	0.35805 0.50753 0.34537 -0.03900
C 	C 	0.25707 0.50846 0.35579 -0.10000
C 	C 	0.14459 0.43184 0.35054 0.07000
C 	C 	0.13654 0.35210 0.33862 -0.02900
C 	C 	0.23819 0.34840 0.33067 -0.10300
C 	C 	0.34995 0.42723 0.33355 0.07600
C 	C 	0.46055 0.42610 0.32445 -0.19200
H 	H 	0.44375 0.56802 0.34792 0.04200
H 	H 	0.54109 0.48801 0.33236 0.05900
H 	H 	0.46433 0.42398 0.30022 0.07300
H 	H 	0.46211 0.36557 0.33372 0.06800
H 	H 	0.03113 0.49146 0.34620 0.07600
C 	C 	0.41520 0.02764 0.37936 -0.00600
C 	C 	0.44297 0.95856 0.37323 -0.12800
C 	C 	0.38161 0.95406 0.32270 -0.07400
C 	C 	0.33000 0.00740 0.33046 -0.06300
C 	C 	0.35887 0.05311 0.35792 0.06100
C 	C 	0.32948 0.12786 0.36444 -0.19300
H 	H 	0.42824 0.05585 0.40124 0.04500
H 	H 	0.37213 0.92762 0.30058 0.04900
H 	H 	0.35445 0.15436 0.38713 0.06400
H 	H 	0.23330 0.10136 0.36176 0.09000
H 	H 	0.37844 0.18618 0.34941 0.08000
H 	H 	0.18948 0.96009 0.39999 0.08800
H 	H 	0.95677 0.67028 0.52568 0.04500
C 	C 	0.80404 0.51880 0.46676 0.02200
C 	C 	0.85266 0.48705 0.44537 -0.01400
C 	C 	0.95096 0.47739 0.45283 -0.11900
C 	C 	0.95501 0.44923 0.48156 0.07000
C 	C 	0.74563 0.57337 0.45737 -0.17300
H 	H 	0.83435 0.49201 0.42248 0.03300
C 	C 	0.02794 0.40495 0.48901 -0.16000
H 	H 	0.02921 0.75109 0.57211 0.08700
H 	H 	0.79917 0.62286 0.44016 0.06400
H 	H 	0.73643 0.61374 0.47541 0.06600
H 	H 	0.11684 0.45758 0.49643 0.07400
C 	C 	0.37785 0.10421 0.75350 -0.06100
C 	C 	0.31103 0.01008 0.74735 -0.03500
H 	H 	0.35770 0.13201 0.77272 0.04800
H 	H 	0.53769 0.27560 0.76508 0.06200
C 	C 	0.18736 0.50992 0.93314 -0.09100
C 	C 	0.17524 0.51518 0.96345 0.00200
C 	C 	0.21945 0.60635 0.97768 0.00800
C 	C 	0.12810 0.42238 0.88557 -0.20500
H 	H 	0.24899 0.57016 0.92119 0.05100
C 	C 	0.33381 0.65316 0.98956 0.02200
C 	C 	0.35141 0.70070 0.01619 -0.01000
C 	C 	0.25893 0.71011 0.02834 -0.12300
C 	C 	0.15889 0.68859 0.01094 0.11100
C 	C 	0.13956 0.63610 0.98536 -0.10100
C 	C 	0.43758 0.67431 0.97055 -0.17300
C 	C 	0.07562 0.72315 0.01907 -0.21200
H 	H 	0.22316 0.45502 0.87997 0.07300
H 	H 	0.15035 0.49718 0.02243 0.07400
H 	H 	0.42139 0.61482 0.95673 0.06100
H 	H 	0.45494 0.73247 0.95604 0.05800
H 	H 	0.12524 0.79357 0.02825 0.07900
H 	H 	0.01243 0.67755 0.03569 0.08900
C 	C 	0.10629 0.95736 0.88857 -0.00700
C 	C 	0.15009 0.93906 0.86299 -0.10300
H 	H 	0.01959 0.95169 0.88852 0.03600
H 	H 	0.12026 0.60748 0.51530 0.08000
O 	O 	0.24045 0.81049 0.12498 -0.38100
H 	H 	0.26149 0.71642 0.19687 0.08000
H 	H 	0.17371 0.52813 0.22033 0.04500
H 	H 	0.14641 0.49348 0.27016 0.06900
H 	H 	0.34483 0.51813 0.02952 0.04000
H 	H 	0.13628 0.87467 0.50989 0.04000
H 	H 	0.51691 0.69397 0.98414 0.06100
C 	C 	0.42166 0.88915 0.39579 0.31200
C 	C 	0.19823 0.83811 0.45451 0.30100
C 	C 	0.35703 0.66959 0.50132 0.29700
Ni	Ni	0.40930 0.81813 0.45636 1.11900
Ni	Ni	0.33112 0.61035 0.43886 1.11700
O 	O 	0.42211 0.90813 0.42395 -0.38300
O 	O 	0.31824 0.60035 0.48246 -0.39900
O 	O 	0.26677 0.82094 0.47171 -0.39700
O 	O 	0.29706 0.70685 0.43786 -0.71800
H 	H 	0.23720 0.68486 0.45332 0.15300
C 	C 	0.37308 0.55467 0.08777 0.30400
Ni	Ni	0.44078 0.65467 0.14322 1.10900
Ni	Ni	0.39421 0.81668 0.11338 1.11600
O 	O 	0.39002 0.54557 0.11529 -0.39000
O 	O 	0.53083 0.81646 0.09398 -0.39900
O 	O 	0.30997 0.56475 0.17113 -0.37400
O 	O 	0.33886 0.69271 0.12591 -0.69700
H 	H 	0.30856 0.69769 0.14503 0.13600
C 	C 	0.44673 0.93581 0.34356 0.09500
C 	C 	0.50865 0.88349 0.33473 -0.20500
H 	H 	0.44422 0.80926 0.33331 0.08300
H 	H 	0.57907 0.89461 0.35072 0.08400
H 	H 	0.55061 0.90631 0.31306 0.06900
C 	C 	0.31213 0.06634 0.45426 -0.06700
C 	C 	0.28649 0.00902 0.50393 0.04500
C 	C 	0.18546 0.92914 0.49447 -0.03900
C 	C 	0.17225 0.90987 0.46446 -0.10300
C 	C 	0.20927 0.98576 0.44627 0.08600
C 	C 	0.14739 0.97809 0.41784 -0.23100
H 	H 	0.35764 0.11962 0.43840 0.04300
H 	H 	0.14884 0.04333 0.41278 0.09100
H 	H 	0.05427 0.92297 0.41913 0.09000
H 	H 	0.24830 0.99858 0.55002 0.03600
C 	C 	0.30842 0.33737 0.62702 -0.01800
H 	H 	0.31028 0.32950 0.65051 0.04000
C 	C 	0.23801 0.59189 0.54500 0.09900
C 	C 	0.21986 0.51984 0.56375 -0.09100
C 	C 	0.14042 0.61306 0.53904 -0.21300
H 	H 	0.13126 0.46965 0.57013 0.04600
H 	H 	0.18839 0.47528 0.62655 0.07300
H 	H 	0.16824 0.68407 0.54629 0.07300
H 	H 	0.05929 0.56604 0.55107 0.08500
C 	C 	0.42396 0.03245 0.70307 0.00500
C 	C 	0.47920 0.12801 0.70698 -0.11100
C 	C 	0.46366 0.16363 0.73371 0.09500
C 	C 	0.34304 0.97330 0.72362 0.01700
C 	C 	0.28237 0.87142 0.71844 -0.17400
C 	C 	0.53541 0.26405 0.74111 -0.20100
H 	H 	0.33292 0.85252 0.70307 0.05500
H 	H 	0.19349 0.84801 0.70897 0.07800
H 	H 	0.27395 0.83500 0.73929 0.07200
H 	H 	0.49596 0.30214 0.73043 0.07800
H 	H 	0.62814 0.29200 0.73398 0.07300
C 	C 	0.11374 0.42818 0.91800 0.10400
H 	H 	0.43569 0.72911 0.02745 0.04300
C 	C 	0.41935 0.04895 0.02012 -0.17700
H 	H 	0.52449 0.99322 0.06037 0.03400
H 	H 	0.36206 0.99293 0.03520 0.05500
H 	H 	0.41944 0.01835 0.99855 0.08400
H 	H 	0.38027 0.09443 0.01771 0.07900
C 	C 	0.52230 0.55798 0.01619 0.02700
C 	C 	0.43540 0.54677 0.03654 -0.01600
C 	C 	0.46366 0.56293 0.06630 -0.11100
C 	C 	0.48450 0.50035 0.98873 -0.17700
H 	H 	0.38959 0.47453 0.98384 0.06200
H 	H 	0.49716 0.44023 0.99195 0.07200
H 	H 	0.53453 0.53935 0.96939 0.07300
C 	C 	0.32571 0.96453 0.88982 -0.07700
C 	C 	0.29322 0.00224 0.91292 -0.02900
C 	C 	0.17566 0.98494 0.91410 0.01200
C 	C 	0.25730 0.93638 0.86414 0.09900
C 	C 	0.30352 0.91091 0.83757 -0.20200
C 	C 	0.12860 0.00529 0.94148 -0.10400
H 	H 	0.38149 0.90327 0.84304 0.06900
H 	H 	0.33049 0.96525 0.82084 0.08400
H 	H 	0.23522 0.84441 0.82842 0.07300
H 	H 	0.14226 0.07598 0.94056 0.06200
H 	H 	0.17389 0.99851 0.96120 0.03700
H 	H 	0.03282 0.95654 0.94370 0.04100
C 	C 	0.28445 0.40456 0.61561 0.02700
C 	C 	0.25741 0.46234 0.63607 -0.17800
O 	O 	0.51086 0.68292 0.44160 -0.38500
C 	C 	0.61290 0.20726 0.98877 0.28800
C 	C 	0.38591 0.08538 0.92702 0.29600
Ni	Ni	0.51095 0.28402 0.94066 1.11200
O 	O 	0.52333 0.22034 0.97995 -0.37000
O 	O 	0.38525 0.16204 0.92284 -0.37400
O 	O 	0.47659 0.08526 0.93989 -0.38200
C 	C 	0.55114 0.18818 0.68272 0.31800
C 	C 	0.45353 0.28557 0.61918 0.29300
Ni	Ni	0.58191 0.17345 0.62037 1.11800
O 	O 	0.55779 0.26826 0.67835 -0.39100
O 	O 	0.44527 0.20313 0.62316 -0.38200
O 	O 	0.54360 0.36166 0.62942 -0.39700
O 	O 	0.59173 0.15431 0.66312 -0.40300
C 	C 	0.57489 0.76698 0.43115 0.30500
O 	O 	0.56026 0.83407 0.44098 -0.39700
O 	O 	0.42624 0.75638 0.49325 -0.38700
C 	C 	0.52953 0.83548 0.17028 0.29500
C 	C 	0.61748 0.81961 0.10863 0.31200
O 	O 	0.47451 0.74822 0.17559 -0.39200
O 	O 	0.48171 0.87207 0.15264 -0.39000
O 	O 	0.60270 0.74691 0.12312 -0.39100
H 	H 	0.55438 0.98299 0.20060 0.03900
C 	C 	0.67202 0.75716 0.38584 -0.04200
C 	C 	0.68339 0.79234 0.41421 -0.09000
H 	H 	0.59557 0.69235 0.38019 0.04800
C 	C 	0.35995 0.07263 0.48245 -0.00500
C 	C 	0.48978 0.12501 0.48693 0.00600
C 	C 	0.32478 0.01748 0.53542 -0.13400
C 	C 	0.54911 0.07796 0.49566 -0.08500
H 	H 	0.51436 0.00688 0.48936 0.04200
H 	H 	0.39337 0.08818 0.54094 0.06700
H 	H 	0.36088 0.97075 0.53963 0.04200
C 	C 	0.31052 0.36169 0.56659 -0.09100
C 	C 	0.29750 0.42271 0.58531 -0.00000
C 	C 	0.35089 0.29267 0.60862 -0.10400
C 	C 	0.33360 0.29442 0.57826 0.09200
C 	C 	0.31652 0.51169 0.57361 0.00200
C 	C 	0.35005 0.23053 0.55825 -0.20800
H 	H 	0.30928 0.36979 0.54310 0.04900
C 	C 	0.43181 0.58323 0.56769 0.02500
C 	C 	0.44789 0.64803 0.54612 -0.01700
C 	C 	0.34982 0.64607 0.53256 -0.10900
H 	H 	0.31090 0.22667 0.53629 0.06800
H 	H 	0.30558 0.16086 0.56773 0.07800
H 	H 	0.33859 0.52870 0.64009 0.06500
H 	H 	0.22403 0.42752 0.65735 0.07000
H 	H 	0.44002 0.00406 0.68341 0.03400
C 	C 	0.58336 0.06203 0.05282 -0.05900
C 	C 	0.70128 0.10751 0.06244 -0.01400
C 	C 	0.62398 0.18811 0.01991 -0.09800
C 	C 	0.54361 0.10216 0.03182 0.08500
C 	C 	0.73394 0.90138 0.10505 -0.12700
C 	C 	0.71847 0.11113 0.12752 -0.17600
H 	H 	0.62178 0.08469 0.12732 0.06700
H 	H 	0.70887 0.80415 0.04823 0.07800
C 	C 	0.73816 0.61878 0.00442 0.00400
C 	C 	0.64307 0.60710 0.02478 -0.00100
C 	C 	0.75648 0.75504 0.97596 -0.16900
C 	C 	0.58050 0.58835 0.07536 0.09800
C 	C 	0.67054 0.62408 0.05459 -0.09300
C 	C 	0.60459 0.55696 0.10428 -0.19500
H 	H 	0.72075 0.76923 0.99608 0.05400
H 	H 	0.70281 0.75436 0.95692 0.05100
H 	H 	0.53644 0.48504 0.10857 0.07700
H 	H 	0.60698 0.60146 0.12248 0.05700
H 	H 	0.69106 0.55862 0.10418 0.06300
H 	H 	0.41046 0.96703 0.89046 0.04800
H 	H 	0.68636 0.69391 0.33409 0.05800
C 	C 	0.10196 0.43332 0.97889 0.02400
C 	C 	0.10636 0.42902 0.01174 -0.17800
H 	H 	0.08534 0.34993 0.87811 0.08800
H 	H 	0.43156 0.27392 0.48013 0.05900
H 	H 	0.50979 0.25935 0.44959 0.06100
H 	H 	0.64192 0.02479 0.54847 0.08200
H 	H 	0.44546 0.25404 0.55575 0.07400
C 	C 	0.74876 0.05487 0.07815 0.03200
C 	C 	0.74644 0.04959 0.10908 0.03300
C 	C 	0.77666 0.92160 0.07624 0.11400
C 	C 	0.77696 0.99634 0.06215 -0.14100
C 	C 	0.79375 0.85332 0.05875 -0.21300
H 	H 	0.78918 0.00429 0.03868 0.07400
H 	H 	0.74794 0.11355 0.15051 0.06500
C 	C 	0.75658 0.66567 0.97762 0.01500
O 	O 	0.47284 0.35421 0.90776 -0.36500
O 	O 	0.62223 0.41408 0.95465 -0.38700
C 	C 	0.62393 0.89292 0.19096 -0.10100
H 	H 	0.66039 0.73645 0.17750 0.05500
H 	H 	0.77770 0.84353 0.46798 0.07100
H 	H 	0.53600 0.69611 0.53879 0.03600
C 	C 	0.75392 0.97693 0.12228 -0.04300
H 	H 	0.78901 0.53494 0.02960 0.04700
H 	H 	0.76161 0.65334 0.06171 0.04500
H 	H 	0.84830 0.81141 0.97312 0.04700
H 	H 	0.35451 0.29536 0.83013 0.07900
O 	O 	0.58502 0.18117 0.57640 -0.39200
O 	O 	0.68375 0.19792 0.97004 -0.39200
Ni	Ni	0.67759 0.36540 0.65135 1.12000
O 	O 	0.68883 0.11674 0.61574 -0.38200
C 	C 	0.61120 0.95679 0.20813 -0.03300
C 	C 	0.54624 0.22001 0.49151 0.02700
C 	C 	0.51620 0.27947 0.47293 -0.17500
H 	H 	0.62084 0.00370 0.66382 0.04400
H 	H 	0.54808 0.89943 0.70285 0.05600
H 	H 	0.75556 0.97285 0.14574 0.03300
H 	H 	0.76345 0.18220 0.11920 0.05900
C 	C 	0.79111 0.56429 0.00837 -0.09600
C 	C 	0.64050 0.11794 0.51652 0.09800
C 	C 	0.73493 0.23948 0.03349 -0.02200
C 	C 	0.50580 0.35677 0.88044 0.31000
H 	H 	0.55967 0.04672 0.24729 0.06800
C 	C 	0.75281 0.80946 0.36389 0.06700
C 	C 	0.73596 0.76990 0.33353 -0.18600
H 	H 	0.78570 0.95155 0.45899 0.06700
C 	C 	0.53452 0.59826 0.58673 -0.17800
H 	H 	0.61788 0.63147 0.57413 0.06400
C 	C 	0.78800 0.87384 0.42166 0.07600
O 	O 	0.64491 0.28195 0.92537 -0.71000
O 	O 	0.69955 0.29810 0.62079 -0.71000
H 	H 	0.67365 0.31945 0.60370 0.15300
C 	C 	0.70278 0.86243 0.20036 0.07700
C 	C 	0.73597 0.80629 0.18067 -0.19300
H 	H 	0.76801 0.84080 0.15946 0.07200
C 	C 	0.81798 0.90338 0.45313 -0.18900
H 	H 	0.68417 0.79310 0.32023 0.07700
C 	C 	0.69307 0.06300 0.52904 -0.20500
H 	H 	0.69151 0.01344 0.51260 0.07000
H 	H 	0.52394 0.53338 0.59568 0.07400
C 	C 	0.93560 0.41935 0.73442 -0.18800
H 	H 	0.84528 0.35956 0.73422 0.07100
C 	C 	0.77585 0.19899 0.05399 0.02800
H 	H 	0.86104 0.88808 0.04154 0.05800
H 	H 	0.82453 0.81596 0.07315 0.07100
C 	C 	0.78925 0.63258 0.95303 -0.01800
H 	H 	0.78949 0.65937 0.93151 0.03000
C 	C 	0.52600 0.43453 0.86145 -0.10600
H 	H 	0.58598 0.53529 0.89614 0.05100
C 	C 	0.43703 0.33076 0.81726 -0.19700
H 	H 	0.41240 0.33911 0.79463 0.06600
C 	C 	0.71648 0.47265 0.93999 0.29600
Ni	Ni	0.64672 0.17004 0.92734 1.11700
O 	O 	0.80562 0.35915 0.67394 -0.39800
H 	H 	0.82177 0.78940 0.32307 0.04700
C 	C 	0.83111 0.53706 0.98397 0.09200
C 	C 	0.58837 0.52394 0.87285 -0.03400
C 	C 	0.52043 0.42228 0.83077 0.07800
H 	H 	0.47958 0.28738 0.81653 0.07500
O 	O 	0.55843 0.31103 0.87341 -0.39700
H 	H 	0.70548 0.31796 0.94017 0.15400
C 	C 	0.66144 0.97965 0.23633 0.05100
C 	C 	0.70945 0.01510 0.66732 -0.01000
C 	C 	0.63575 0.91806 0.71235 -0.17900
H 	H 	0.63558 0.85318 0.71712 0.05400
C 	C 	0.80068 0.55414 0.95600 -0.11600
H 	H 	0.61716 0.21624 0.80805 0.07300
H 	H 	0.79490 0.30729 0.02563 0.02600
C 	C 	0.78437 0.14237 0.63185 0.30900
C 	C 	0.63879 0.04376 0.25504 -0.17000
H 	H 	0.54225 0.64364 0.60533 0.06200
H 	H 	0.78385 0.39725 0.99017 0.07200
O 	O 	0.58404 0.13680 0.88679 -0.40300
H 	H 	0.62194 0.02064 0.27805 0.07900
C 	C 	0.66835 0.20377 0.52872 -0.10800
C 	C 	0.68283 0.21622 0.56055 0.29300
H 	H 	0.80921 0.79852 0.19022 0.06400
C 	C 	0.63321 0.25887 0.51342 -0.02200
H 	H 	0.58700 0.35163 0.47417 0.06200
H 	H 	0.64655 0.95681 0.73290 0.07500
H 	H 	0.91498 0.93828 0.45662 0.05500
H 	H 	0.87482 0.54439 0.75285 0.03800
H 	H 	0.03890 0.74842 0.65182 0.09000
H 	H 	0.03216 0.66199 0.59356 0.09500
C 	C 	0.86006 0.93135 0.39936 -0.04400
C 	C 	0.84246 0.90060 0.37030 -0.09000
H 	H 	0.60107 0.43667 0.57637 0.03700
H 	H 	0.08781 0.45808 0.87376 0.08400
O 	O 	0.86368 0.22875 0.63411 -0.38500
C 	C 	0.74462 0.87892 0.22898 -0.04900
H 	H 	0.51616 0.49460 0.52702 0.06700
C 	C 	0.73388 0.97595 0.69162 0.05000
H 	H 	0.78639 0.10860 0.53559 0.07900
O 	O 	0.72695 0.46419 0.91115 -0.38100
C 	C 	0.72978 0.94015 0.24678 -0.08600
H 	H 	0.71564 0.11387 0.25399 0.07200
C 	C 	0.80044 0.07471 0.64895 -0.09200
C 	C 	0.86470 0.46415 0.98764 -0.21000
C 	C 	0.69037 0.20551 0.80037 -0.19400
C 	C 	0.59937 0.49406 0.81288 -0.04500
H 	H 	0.68363 0.19914 0.77615 0.06600
H 	H 	0.15308 0.39124 0.01803 0.06700
O 	O 	0.79259 0.48392 0.62982 -0.38100
H 	H 	0.92165 0.47871 0.00727 0.06000
H 	H 	0.60097 0.48273 0.78955 0.04400
Ni	Ni	0.71744 0.35013 0.89079 1.11800
C 	C 	0.91387 0.42073 0.66898 0.30500
H 	H 	0.66136 0.32752 0.52109 0.03500
C 	C 	0.90308 0.25042 0.06383 -0.17100
H 	H 	0.77619 0.26614 0.80611 0.07200
O 	O 	0.78887 0.24413 0.57266 -0.37800
H 	H 	0.91794 0.22587 0.08505 0.05700
C 	C 	0.65299 0.17000 0.86446 0.31800
H 	H 	0.79217 0.84567 0.23716 0.04700
C 	C 	0.67442 0.58081 0.82486 -0.08400
Ni	Ni	0.85610 0.32941 0.61002 1.11000
H 	H 	0.72415 0.07439 0.77406 0.04500
H 	H 	0.50908 0.38523 0.52274 0.06000
C 	C 	0.68242 0.12110 0.81411 0.08100
H 	H 	0.93072 0.99937 0.40474 0.03100
C 	C 	0.67877 0.48843 0.56547 -0.02400
C 	C 	0.56392 0.45954 0.51886 -0.18000
C 	C 	0.69671 0.05794 0.79662 -0.02000
O 	O 	0.82363 0.23212 0.91732 -0.38300
C 	C 	0.91755 0.96382 0.34692 0.28500
C 	C 	0.79885 0.97059 0.27421 0.26300
O 	O 	0.90748 0.03640 0.34013 -0.36700
H 	H 	0.95918 0.24264 0.04710 0.05400
H 	H 	0.06452 0.61953 0.97144 0.06600
H 	H 	0.93172 0.32417 0.06677 0.04600
C 	C 	0.66322 0.10484 0.84446 -0.10500
C 	C 	0.03280 0.43396 0.35773 -0.16700
H 	H 	0.57520 0.47127 0.49510 0.06100
C 	C 	0.66390 0.59733 0.85481 0.06600
C 	C 	0.81732 0.48808 0.60130 0.29200
O 	O 	0.71331 0.88101 0.77388 -0.37900
O 	O 	0.83287 0.91593 0.28721 -0.39700
C 	C 	0.91421 0.08429 0.65235 0.06000
H 	H 	0.03650 0.36817 0.46973 0.07600
O 	O 	0.13849 0.18606 0.32891 -0.38800
C 	C 	0.85147 0.99626 0.69730 -0.09600
H 	H 	0.97220 0.12796 0.60795 0.04900
O 	O 	0.79348 0.68684 0.73835 -0.37700
O 	O 	0.72923 0.25816 0.86367 -0.39100
O 	O 	0.69315 0.69792 0.79198 -0.37900
C 	C 	0.67902 0.49554 0.53493 0.02700
C 	C 	0.97487 0.68896 0.58529 -0.26300
H 	H 	0.96263 0.44111 0.75745 0.05600
O 	O 	0.86867 0.44365 0.59012 -0.39000
Ni	Ni	0.77049 0.79001 0.75834 1.11000
O 	O 	0.83656 0.05497 0.28368 -0.38500
H 	H 	0.91229 0.46082 0.96804 0.06800
C 	C 	0.93767 0.49626 0.71704 0.06400
C 	C 	0.90340 0.55500 0.73025 -0.03700
C 	C 	0.68685 0.97781 0.80895 -0.10600
C 	C 	0.78394 0.53926 0.58120 -0.11800
H 	H 	0.99774 0.39853 0.72512 0.06600
O 	O 	0.85089 0.87140 0.72261 -0.38700
C 	C 	0.74616 0.65718 0.80495 0.28300
C 	C 	0.00982 0.13652 0.63034 -0.14300
O 	O 	0.87604 0.38222 0.90601 -0.39900
O 	O 	0.95742 0.42313 0.64295 -0.38100
C 	C 	0.93988 0.04782 0.67713 -0.04300
C 	C 	0.96281 0.50456 0.68690 -0.09500
H 	H 	0.74555 0.74536 0.85347 0.06400
C 	C 	0.89840 0.32238 0.91922 0.26900
C 	C 	0.91085 0.62976 0.71483 -0.11800
C 	C 	0.64165 0.02017 0.85576 -0.00900
C 	C 	0.88063 0.95780 0.72293 0.28300
C 	C 	0.73975 0.69081 0.86815 -0.18900
C 	C 	0.75671 0.93954 0.79650 0.29600
C 	C 	0.64552 0.95448 0.83769 0.05100
H 	H 	0.70242 0.69809 0.88916 0.05900
H 	H 	0.00281 0.79149 0.68351 0.11100
C 	C 	0.89832 0.69973 0.73118 0.31600
H 	H 	0.05701 0.21023 0.63629 0.07500
H 	H 	0.58820 0.80974 0.83320 0.07000
H 	H 	0.62282 0.00565 0.87882 0.02800
H 	H 	0.55034 0.84160 0.86728 0.05600
C 	C 	0.62002 0.86384 0.85037 -0.18600
H 	H 	0.07460 0.11146 0.62987 0.06600
C 	C 	0.96097 0.64898 0.68654 0.10400
H 	H 	0.95692 0.29504 0.97473 0.01600
O 	O 	0.99828 0.95044 0.33463 -0.42000
C 	C 	0.98969 0.58702 0.67307 -0.08200
H 	H 	0.00447 0.96191 0.15049 0.07000
H 	H 	0.88622 0.71253 0.65952 0.08300
O 	O 	0.84846 0.66692 0.79493 -0.38300
H 	H 	0.82981 0.70150 0.87227 0.06800
H 	H 	0.97863 0.97358 0.18834 0.05300
O 	O 	0.91595 0.00549 0.74749 -0.35800
Ni	Ni	0.98756 0.12349 0.30585 1.10700
H 	H 	0.02869 0.05942 0.68066 0.06600
C 	C 	0.97274 0.72987 0.66947 -0.26900
H 	H 	0.65715 0.52649 0.44803 0.05800
C 	C 	0.78764 0.54834 0.52067 0.00300
H 	H 	0.02636 0.44096 0.38169 0.08400
H 	H 	0.89352 0.44397 0.52584 0.05200
H 	H 	0.01987 0.59801 0.65062 0.07800
H 	H 	0.87071 0.83723 0.80153 0.15800
O 	O 	0.86656 0.97321 0.80611 -0.40100
O 	O 	0.90634 0.84750 0.78196 -0.72300
Ni	Ni	0.00453 0.94406 0.29124 1.12000
C 	C 	0.87484 0.61692 0.56752 0.10900
H 	H 	0.95298 0.37015 0.35063 0.04100
C 	C 	0.01625 0.35764 0.93263 -0.08600
H 	H 	0.70147 0.87065 0.86059 0.06100
C 	C 	0.82234 0.50645 0.49659 -0.00200
C 	C 	0.87812 0.62004 0.53675 -0.10300
O 	O 	0.99195 0.76591 0.74317 -0.41400
C 	C 	0.02305 0.35416 0.96312 0.00400
H 	H 	0.05044 0.29263 0.33522 0.02100
C 	C 	0.88880 0.46287 0.50344 -0.08700
H 	H 	0.01554 0.39175 0.02038 0.07000
H 	H 	0.01611 0.05999 0.26433 0.15900
H 	H 	0.98584 0.35428 0.50679 0.04900
H 	H 	0.02608 0.72598 0.99963 0.08000
H 	H 	0.93895 0.70925 0.60410 0.07400
