data_crystal

_cell_length_a 27.78335
_cell_length_b 28.17299
_cell_length_c 35.09383
_cell_angle_alpha 95.52918
_cell_angle_beta  95.52603
_cell_angle_gamma 125.65440

_symmetry_space_group_name_	'P 1'
_symmetry_space_group_name_H-M	'P 1'

loop_
_symmetry_equiv_pos_as_xyz
  x,y,z

loop_
_atom_site_label
_atom_site_type_symbol
_atom_site_fract_x
_atom_site_fract_y
_atom_site_fract_z
_atom_site_charge
C 	C 	0.96661 0.02176 0.99204 0.04400
C 	C 	0.02688 0.05203 0.98746 -0.08100
C 	C 	0.05157 0.02083 0.98265 0.04700
C 	C 	0.01609 0.95962 0.98240 -0.08100
C 	C 	0.95604 0.92946 0.98701 0.04700
C 	C 	0.93127 0.96048 0.99185 -0.08200
H 	H 	0.05431 0.09946 0.98761 0.05300
H 	H 	0.03524 0.93552 0.97872 0.05400
H 	H 	0.88465 0.93703 0.99533 0.05400
C 	C 	0.94155 0.00732 0.45550 0.04500
C 	C 	0.00402 0.04216 0.45699 -0.08300
C 	C 	0.03460 0.01668 0.46049 0.04700
C 	C 	0.00282 0.95636 0.46247 -0.08100
C 	C 	0.94040 0.92130 0.46092 0.04700
C 	C 	0.90960 0.94674 0.45745 -0.08200
H 	H 	0.02874 0.08897 0.45551 0.05400
H 	H 	0.02660 0.93668 0.46513 0.05500
H 	H 	0.86126 0.91968 0.45629 0.05400
Cu	Cu	0.64038 0.24157 0.99944 0.92600
Cu	Cu	0.69444 0.24944 0.91943 0.86600
Cu	Cu	0.67158 0.33531 0.94951 0.89600
Cu	Cu	0.63788 0.34962 0.02547 0.89500
C 	C 	0.65250 0.28262 0.08036 0.29700
O 	O 	0.55175 0.20582 0.99709 -0.36800
C 	C 	0.66724 0.30408 0.86581 0.29000
O 	O 	0.68783 0.33406 0.00364 -0.63900
O 	O 	0.63439 0.24862 0.94395 -0.64100
O 	O 	0.67815 0.19939 0.99776 -0.37900
O 	O 	0.74787 0.26376 0.96452 -0.44600
O 	O 	0.62407 0.30499 0.06914 -0.38700
O 	O 	0.71345 0.42053 0.95755 -0.38700
C 	C 	0.71025 0.45286 0.98560 0.30800
C 	C 	0.52836 0.23051 0.98167 0.30200
O 	O 	0.56371 0.28635 0.97805 -0.39900
O 	O 	0.67361 0.42880 0.01060 -0.39400
O 	O 	0.65963 0.25059 0.05482 -0.36800
C 	C 	0.73017 0.22358 0.98657 0.31000
O 	O 	0.66212 0.33577 0.89325 -0.38000
O 	O 	0.66132 0.25551 0.87151 -0.42100
H 	H 	0.73101 0.36064 0.01615 0.16400
H 	H 	0.59327 0.22254 0.92790 0.17400
Cu	Cu	0.73500 0.34405 0.45074 0.92700
Cu	Cu	0.73293 0.30025 0.53415 0.86600
Cu	Cu	0.64175 0.31595 0.50170 0.89600
Cu	Cu	0.62205 0.34063 0.42331 0.89400
C 	C 	0.68993 0.32422 0.36917 0.29700
O 	O 	0.76859 0.43015 0.44923 -0.36600
C 	C 	0.67889 0.33116 0.58647 0.29200
O 	O 	0.64133 0.29561 0.44784 -0.64100
O 	O 	0.73003 0.35497 0.50635 -0.64100
O 	O 	0.77916 0.30821 0.45458 -0.37800
O 	O 	0.71702 0.24362 0.49119 -0.44600
O 	O 	0.66544 0.35106 0.37892 -0.38800
O 	O 	0.55506 0.27227 0.49472 -0.38800
C 	C 	0.52022 0.27091 0.46555 0.31100
C 	C 	0.74256 0.45314 0.46309 0.30100
O 	O 	0.68666 0.41796 0.46812 -0.39600
O 	O 	0.54264 0.30563 0.43956 -0.39600
O 	O 	0.72385 0.32015 0.39568 -0.37000
C 	C 	0.75599 0.25866 0.46800 0.31000
O 	O 	0.64342 0.33043 0.55800 -0.38100
O 	O 	0.72819 0.33710 0.58078 -0.42300
H 	H 	0.61519 0.25243 0.43695 0.16300
H 	H 	0.75581 0.39659 0.52076 0.17400
C 	C 	0.71018 0.32897 0.76656 -0.09000
C 	C 	0.66605 0.33312 0.74814 0.00200
C 	C 	0.62468 0.33191 0.76928 0.02500
C 	C 	0.62605 0.32316 0.80801 -0.01500
C 	C 	0.66928 0.31744 0.82612 -0.10500
C 	C 	0.71327 0.32289 0.80573 0.09000
C 	C 	0.66195 0.33600 0.70613 0.00300
C 	C 	0.57800 0.33809 0.75034 -0.17300
H 	H 	0.59283 0.31977 0.82384 0.04100
C 	C 	0.76286 0.32111 0.82529 -0.19500
H 	H 	0.74213 0.33040 0.75029 0.04800
C 	C 	0.70416 0.38904 0.69337 0.02400
C 	C 	0.70769 0.38743 0.65367 -0.01300
C 	C 	0.66800 0.33423 0.62653 -0.10800
C 	C 	0.62206 0.28260 0.63885 0.09300
C 	C 	0.61993 0.28370 0.67871 -0.09200
C 	C 	0.74753 0.44659 0.72214 -0.17200
H 	H 	0.74228 0.42726 0.64402 0.03600
C 	C 	0.57729 0.22554 0.60988 -0.20300
H 	H 	0.58686 0.24333 0.68857 0.05000
H 	H 	0.80014 0.33854 0.80863 0.06100
H 	H 	0.74458 0.27455 0.82734 0.05700
H 	H 	0.78249 0.34905 0.85497 0.05100
H 	H 	0.54349 0.29730 0.72848 0.06400
H 	H 	0.59958 0.37715 0.73570 0.06500
H 	H 	0.55493 0.34470 0.77209 0.06200
H 	H 	0.76873 0.48543 0.70727 0.06000
H 	H 	0.78371 0.44607 0.73805 0.06200
H 	H 	0.72359 0.45278 0.74337 0.06400
H 	H 	0.60092 0.20886 0.59697 0.05400
H 	H 	0.55440 0.23335 0.58633 0.07700
H 	H 	0.54192 0.19040 0.62378 0.06600
C 	C 	0.73705 0.31726 0.27176 -0.09500
C 	C 	0.68238 0.29116 0.24613 0.00400
C 	C 	0.62927 0.27019 0.26110 0.02400
C 	C 	0.63218 0.27753 0.30157 -0.01600
C 	C 	0.68765 0.30805 0.32732 -0.10900
C 	C 	0.74079 0.32814 0.31226 0.10400
C 	C 	0.68204 0.29073 0.20382 0.00400
C 	C 	0.56969 0.24109 0.23407 -0.17200
H 	H 	0.59142 0.26139 0.31311 0.02700
C 	C 	0.80158 0.36238 0.33886 -0.20800
H 	H 	0.77740 0.33205 0.26008 0.05200
C 	C 	0.70130 0.34251 0.18859 0.02400
C 	C 	0.69506 0.33958 0.14811 -0.01600
C 	C 	0.66706 0.28522 0.12253 -0.11000
C 	C 	0.64814 0.23332 0.13786 0.10500
C 	C 	0.65818 0.23728 0.17844 -0.09500
C 	C 	0.72768 0.40073 0.21533 -0.17200
H 	H 	0.71021 0.37939 0.13639 0.02700
C 	C 	0.61610 0.17359 0.11143 -0.20800
H 	H 	0.64459 0.19795 0.19034 0.05200
H 	H 	0.83886 0.38123 0.32215 0.06900
H 	H 	0.80397 0.33242 0.35597 0.08900
H 	H 	0.80942 0.40022 0.35889 0.08400
H 	H 	0.55615 0.19889 0.21637 0.06400
H 	H 	0.57347 0.27127 0.21441 0.06500
H 	H 	0.53326 0.23051 0.25040 0.06000
H 	H 	0.73629 0.43582 0.19876 0.05900
H 	H 	0.77120 0.41649 0.23336 0.06400
H 	H 	0.69600 0.39503 0.23470 0.06500
H 	H 	0.64825 0.17274 0.09543 0.08900
H 	H 	0.57789 0.16451 0.09039 0.08500
H 	H 	0.59713 0.13688 0.12817 0.06900
C 	C 	0.81403 0.62773 0.46536 -0.01100
C 	C 	0.79889 0.64309 0.43180 -0.02800
C 	C 	0.82043 0.70200 0.43167 -0.04800
C 	C 	0.85713 0.74582 0.46511 0.02100
C 	C 	0.87171 0.73034 0.49883 -0.04800
C 	C 	0.85014 0.67139 0.49896 -0.02800
C 	C 	0.79104 0.56682 0.46552 0.04500
C 	C 	0.77017 0.51528 0.46489 -0.11200
C 	C 	0.88396 0.80733 0.46380 -0.01400
C 	C 	0.90828 0.85909 0.46252 -0.02900
H 	H 	0.77065 0.60950 0.40579 0.03700
H 	H 	0.80925 0.71366 0.40543 0.04200
H 	H 	0.90035 0.76404 0.52473 0.04200
H 	H 	0.86170 0.65979 0.52509 0.03600
C 	C 	0.81486 0.15655 0.45037 -0.01500
C 	C 	0.78345 0.10132 0.46224 -0.02900
C 	C 	0.80626 0.06823 0.46113 -0.04900
C 	C 	0.86052 0.09017 0.44812 0.02100
C 	C 	0.89107 0.14464 0.43527 -0.04900
C 	C 	0.86831 0.17777 0.43641 -0.02800
C 	C 	0.79449 0.19318 0.45518 0.04700
C 	C 	0.77723 0.22348 0.46032 -0.12300
C 	C 	0.88695 0.05889 0.45031 -0.01500
C 	C 	0.91071 0.03428 0.45253 -0.02900
H 	H 	0.74208 0.08460 0.47305 0.03400
H 	H 	0.78234 0.02616 0.47108 0.04100
H 	H 	0.93303 0.16188 0.42513 0.04200
H 	H 	0.89284 0.22039 0.42718 0.03600
C 	C 	0.21630 0.11545 0.46460 0.02100
C 	C 	0.24375 0.15744 0.44048 -0.04800
C 	C 	0.30563 0.18914 0.44098 -0.02800
C 	C 	0.34026 0.17893 0.46560 -0.01200
C 	C 	0.31287 0.13722 0.48990 -0.02800
C 	C 	0.25099 0.10552 0.48940 -0.04800
C 	C 	0.15232 0.08143 0.46319 -0.01400
C 	C 	0.09868 0.05233 0.46196 -0.02900
C 	C 	0.40378 0.21106 0.46577 0.04700
C 	C 	0.45697 0.23818 0.46576 -0.11200
H 	H 	0.21718 0.16529 0.42121 0.04200
H 	H 	0.32656 0.22140 0.42215 0.03700
H 	H 	0.33940 0.12918 0.50905 0.03600
H 	H 	0.23001 0.07306 0.50810 0.04100
C 	C 	0.79669 0.62956 0.98573 -0.01500
C 	C 	0.80592 0.65068 0.95061 -0.02800
C 	C 	0.83596 0.71139 0.95080 -0.04800
C 	C 	0.85683 0.75116 0.98611 0.01700
C 	C 	0.84707 0.72995 0.02120 -0.04500
C 	C 	0.81702 0.66925 0.02101 -0.02500
C 	C 	0.76650 0.56723 0.98560 0.04700
C 	C 	0.74104 0.51501 0.98555 -0.11100
C 	C 	0.89072 0.81396 0.98651 -0.01400
C 	C 	0.91995 0.86660 0.98679 -0.03000
H 	H 	0.79015 0.62020 0.92322 0.03800
H 	H 	0.84348 0.72752 0.92358 0.04200
H 	H 	0.86320 0.76049 0.04861 0.04200
H 	H 	0.80987 0.65316 0.04826 0.03600
C 	C 	0.88801 0.10658 0.00283 0.02800
C 	C 	0.83067 0.07599 0.01276 -0.05000
C 	C 	0.79993 0.10142 0.01271 -0.02900
C 	C 	0.82641 0.15757 0.00276 -0.00800
C 	C 	0.88447 0.18888 0.99394 -0.03200
C 	C 	0.91520 0.16343 0.99396 -0.05300
C 	C 	0.91721 0.07811 0.99947 -0.02100
C 	C 	0.94050 0.05316 0.99624 -0.02700
C 	C 	0.79222 0.18087 0.99846 0.04200
C 	C 	0.76369 0.20031 0.99372 -0.12400
H 	H 	0.80942 0.03206 0.01974 0.04300
H 	H 	0.75507 0.07694 0.01956 0.03700
H 	H 	0.90524 0.23232 0.98622 0.03400
H 	H 	0.95956 0.18739 0.98635 0.04100
C 	C 	0.34837 0.15202 0.97063 -0.01200
C 	C 	0.30513 0.09012 0.96142 -0.02800
C 	C 	0.24447 0.06483 0.96189 -0.04800
C 	C 	0.22684 0.10134 0.97163 0.02000
C 	C 	0.26987 0.16329 0.97997 -0.04800
C 	C 	0.33052 0.18859 0.97944 -0.02800
C 	C 	0.41140 0.17792 0.97338 0.04600
C 	C 	0.46457 0.20092 0.97661 -0.11400
C 	C 	0.16527 0.07500 0.97520 -0.01400
C 	C 	0.11356 0.05144 0.97850 -0.02900
H 	H 	0.31858 0.06158 0.95456 0.03600
H 	H 	0.21140 0.01688 0.95537 0.04100
H 	H 	0.25657 0.19178 0.98747 0.04100
H 	H 	0.36373 0.23650 0.98656 0.03600
