data_crystal

_cell_length_a 15.97925
_cell_length_b 13.69481
_cell_length_c 18.19281
_cell_angle_alpha 90.00000
_cell_angle_beta  90.00000
_cell_angle_gamma 90.03477

_symmetry_space_group_name_	'P 1'
_symmetry_space_group_name_H-M	'P 1'

loop_
_symmetry_equiv_pos_as_xyz
  x,y,z

loop_
_atom_site_label
_atom_site_type_symbol
_atom_site_fract_x
_atom_site_fract_y
_atom_site_fract_z
_atom_site_charge
Co	Co	0.92093 0.86162 0.99902 1.10500
Co	Co	0.12561 0.06555 0.99893 1.13500
Co	Co	0.12436 0.86048 0.99885 1.12800
Co	Co	0.92199 0.06646 0.99837 1.11300
C 	C 	0.78910 0.80594 0.10810 0.28600
Co	Co	0.73935 0.96499 0.00250 1.20300
Co	Co	0.30737 0.96187 0.00272 1.20200
C 	C 	0.80259 0.09134 0.87616 0.31000
O 	O 	0.30761 0.85141 0.92276 -0.45100
O 	O 	0.17579 0.96303 0.01786 -0.70800
C 	C 	0.24480 0.83123 0.87801 0.30600
O 	O 	0.02207 0.77549 0.98707 -0.49300
O 	O 	0.02432 0.15183 0.98714 -0.48800
C 	C 	0.24622 0.08883 0.87633 0.30500
O 	O 	0.02333 0.96361 0.03912 -0.47600
C 	C 	0.25553 0.80310 0.10829 0.28300
C 	C 	0.80120 0.83836 0.87510 0.30700
C 	C 	0.78890 0.12682 0.10680 0.28800
O 	O 	0.16820 0.85970 0.89303 -0.42600
O 	O 	0.73924 0.85565 0.92146 -0.45300
O 	O 	0.87887 0.86088 0.89214 -0.44400
O 	O 	0.30732 0.07282 0.92372 -0.44400
O 	O 	0.16831 0.06653 0.89270 -0.41300
O 	O 	0.31885 0.85606 0.08422 -0.35800
O 	O 	0.19837 0.77048 0.06221 -0.32300
O 	O 	0.72772 0.06869 0.08512 -0.34600
O 	O 	0.84623 0.15774 0.06003 -0.33600
O 	O 	0.87068 0.96408 0.01766 -0.71900
C 	C 	0.25762 0.12099 0.10918 0.28300
O 	O 	0.32000 0.06670 0.08504 -0.34500
O 	O 	0.20044 0.15449 0.06342 -0.32100
O 	O 	0.72612 0.85860 0.08315 -0.35600
O 	O 	0.84658 0.77253 0.06273 -0.34500
O 	O 	0.74141 0.07726 0.92384 -0.44200
O 	O 	0.87985 0.06631 0.89226 -0.43500
Co	Co	0.62596 0.56499 0.49983 1.18600
Co	Co	0.42235 0.35986 0.50111 1.18700
Co	Co	0.42261 0.56521 0.49966 1.18500
Co	Co	0.62590 0.36009 0.50107 1.18500
C 	C 	0.74528 0.59084 0.62309 0.30300
Co	Co	0.80804 0.46294 0.49752 1.16300
Co	Co	0.23999 0.46229 0.49792 1.16900
C 	C 	0.75950 0.29943 0.39409 0.29700
O 	O 	0.22643 0.56812 0.41709 -0.37200
O 	O 	0.37153 0.46196 0.48213 -0.78100
C 	C 	0.28950 0.61962 0.39093 0.29500
O 	O 	0.52455 0.65105 0.51018 -0.47600
O 	O 	0.52400 0.27439 0.51345 -0.47000
C 	C 	0.29032 0.30357 0.39204 0.29300
O 	O 	0.52401 0.46207 0.46015 -0.57800
C 	C 	0.30366 0.59470 0.62160 0.30300
C 	C 	0.75794 0.62040 0.39001 0.29500
C 	C 	0.74472 0.33791 0.62445 0.30500
O 	O 	0.34773 0.65357 0.43545 -0.38600
O 	O 	0.82080 0.56742 0.41488 -0.38500
O 	O 	0.70059 0.65401 0.43544 -0.39000
O 	O 	0.22759 0.35728 0.41623 -0.37000
O 	O 	0.34760 0.27045 0.43785 -0.38500
O 	O 	0.24004 0.57275 0.57819 -0.38600
O 	O 	0.38016 0.56670 0.60576 -0.41000
O 	O 	0.80644 0.35239 0.57732 -0.39700
O 	O 	0.66755 0.36250 0.60767 -0.40900
O 	O 	0.67678 0.46273 0.48161 -0.78200
C 	C 	0.30263 0.33650 0.62481 0.30200
O 	O 	0.24121 0.35156 0.57758 -0.38900
O 	O 	0.38024 0.35964 0.60803 -0.40300
O 	O 	0.80704 0.57415 0.57646 -0.40500
O 	O 	0.66766 0.56774 0.60630 -0.40900
O 	O 	0.82059 0.35754 0.41591 -0.38400
O 	O 	0.70204 0.26863 0.44074 -0.38700
C 	C 	0.26642 0.16825 0.18119 -0.05800
C 	C 	0.23696 0.12003 0.24399 -0.02500
C 	C 	0.24396 0.16370 0.31327 0.04700
C 	C 	0.28184 0.25627 0.32003 -0.07300
C 	C 	0.31166 0.30436 0.25726 -0.01800
C 	C 	0.30441 0.26079 0.18794 0.03500
S 	S 	0.20404 0.10243 0.39084 -0.00800
S 	S 	0.34426 0.32204 0.11033 0.02800
H 	H 	0.42563 0.29438 0.09907 0.04900
H 	H 	0.12261 0.12996 0.40197 0.05600
H 	H 	0.20845 0.04854 0.23891 0.04700
H 	H 	0.34073 0.37561 0.26241 0.04000
C 	C 	0.26306 0.14946 0.81088 -0.08000
C 	C 	0.31139 0.23453 0.81846 -0.02300
C 	C 	0.32277 0.29788 0.75890 0.03700
C 	C 	0.28671 0.27526 0.69010 -0.07600
C 	C 	0.23857 0.19006 0.68249 -0.01600
C 	C 	0.22717 0.12675 0.74205 0.03400
S 	S 	0.37868 0.40736 0.77244 -0.04200
S 	S 	0.17126 0.01728 0.72848 0.02600
H 	H 	0.22178 0.95071 0.69414 0.02400
H 	H 	0.32787 0.47435 0.80597 0.03300
H 	H 	0.33814 0.25299 0.87146 0.03100
H 	H 	0.21182 0.17158 0.62950 0.05700
C 	C 	0.28059 0.66470 0.31805 -0.07500
C 	C 	0.20636 0.71394 0.30019 -0.01000
C 	C 	0.19718 0.75873 0.23159 0.03200
C 	C 	0.26329 0.75525 0.18028 -0.06000
C 	C 	0.33723 0.70526 0.19792 -0.02000
C 	C 	0.34588 0.65917 0.26609 0.04400
S 	S 	0.10296 0.81966 0.21096 -0.02400
S 	S 	0.43711 0.59117 0.28443 -0.06600
H 	H 	0.49566 0.65007 0.31709 0.03400
H 	H 	0.10643 0.91375 0.23625 0.03200
H 	H 	0.15599 0.71815 0.34001 0.05900
H 	H 	0.38756 0.70093 0.15807 0.06400
C 	C 	0.76672 0.25041 0.32221 -0.07700
C 	C 	0.69745 0.25008 0.27494 -0.01700
C 	C 	0.70512 0.21625 0.20270 0.03800
C 	C 	0.78176 0.17595 0.17864 -0.06100
C 	C 	0.85105 0.17633 0.22590 -0.02700
C 	C 	0.84338 0.21017 0.29814 0.04900
S 	S 	0.62117 0.23380 0.14131 0.00100
S 	S 	0.92736 0.19271 0.35951 -0.05200
H 	H 	0.98030 0.27133 0.35606 0.03000
H 	H 	0.56816 0.15524 0.14476 0.04900
H 	H 	0.63846 0.28069 0.29330 0.03400
H 	H 	0.91004 0.14572 0.20753 0.03500
C 	C 	0.78519 0.77735 0.80960 -0.09500
C 	C 	0.73598 0.69288 0.81677 -0.02500
C 	C 	0.72459 0.62966 0.75710 0.03100
C 	C 	0.76126 0.65199 0.68851 -0.08200
C 	C 	0.81052 0.73639 0.68132 -0.03000
C 	C 	0.82249 0.79922 0.74113 0.03900
S 	S 	0.66847 0.52023 0.77040 -0.05100
S 	S 	0.88204 0.90635 0.72862 -0.06400
H 	H 	0.83314 0.97835 0.69897 0.03400
H 	H 	0.58564 0.53537 0.75458 0.04200
H 	H 	0.70843 0.67483 0.86952 0.02800
H 	H 	0.83814 0.75437 0.62859 0.04300
C 	C 	0.78754 0.15333 0.81122 -0.08800
C 	C 	0.84075 0.23302 0.79779 -0.02500
C 	C 	0.82663 0.29507 0.73793 0.03900
C 	C 	0.75929 0.27645 0.68977 -0.08000
C 	C 	0.70596 0.19686 0.70328 -0.02200
C 	C 	0.71970 0.13524 0.76345 0.03800
S 	S 	0.89161 0.39787 0.72591 -0.07300
S 	S 	0.65314 0.03407 0.77675 -0.03400
H 	H 	0.68099 0.95609 0.73649 0.02500
H 	H 	0.86276 0.47375 0.76786 0.03300
H 	H 	0.89229 0.24794 0.83492 0.02600
H 	H 	0.65445 0.18192 0.66613 0.04700
C 	C 	0.28906 0.65569 0.68698 -0.07600
C 	C 	0.22945 0.62619 0.73890 -0.02500
C 	C 	0.21556 0.68173 0.80228 0.04600
C 	C 	0.25996 0.76984 0.81295 -0.09000
C 	C 	0.31977 0.79918 0.76118 -0.02000
C 	C 	0.33364 0.74367 0.69777 0.03500
S 	S 	0.14602 0.63727 0.86953 -0.07100
S 	S 	0.40339 0.78802 0.63064 -0.05100
H 	H 	0.48253 0.75554 0.64620 0.04200
H 	H 	0.06670 0.66901 0.85378 0.06000
H 	H 	0.19535 0.55852 0.73089 0.05000
H 	H 	0.35393 0.86680 0.76924 0.03400
C 	C 	0.78054 0.75925 0.18036 -0.06900
C 	C 	0.75002 0.66351 0.18494 -0.01800
C 	C 	0.74283 0.61723 0.25323 0.03600
C 	C 	0.76652 0.66703 0.31774 -0.08000
C 	C 	0.79701 0.76277 0.31316 -0.01700
C 	C 	0.80419 0.80905 0.24488 0.03000
S 	S 	0.70353 0.49742 0.25729 -0.04100
S 	S 	0.84331 0.92893 0.24085 -0.06700
H 	H 	0.92819 0.92699 0.23062 0.01400
H 	H 	0.61869 0.49963 0.26776 0.03200
H 	H 	0.73180 0.62506 0.13534 0.06500
H 	H 	0.81522 0.80123 0.36276 0.04200
