data_crystal

_cell_length_a 24.10697
_cell_length_b 24.57478
_cell_length_c 26.21961
_cell_angle_alpha 95.50599
_cell_angle_beta  95.50537
_cell_angle_gamma 125.82937

_symmetry_space_group_name_	'P 1'
_symmetry_space_group_name_H-M	'P 1'

loop_
_symmetry_equiv_pos_as_xyz
  x,y,z

loop_
_atom_site_label
_atom_site_type_symbol
_atom_site_fract_x
_atom_site_fract_y
_atom_site_fract_z
_atom_site_charge
C 	C 	0.04704 0.03468 0.96733 0.09600
N 	N 	0.00907 0.05739 0.95438 -0.10600
H 	H 	0.79437 0.05575 0.51983 0.06700
C 	C 	0.18931 0.04283 0.37477 0.11000
C 	C 	0.25137 0.04976 0.38706 -0.08000
C 	C 	0.09244 0.01851 0.38814 0.09200
H 	H 	0.25043 0.00755 0.39718 0.06900
C 	C 	0.15583 0.06935 0.02441 -0.07900
C 	C 	0.81775 0.07905 0.48746 -0.09500
H 	H 	0.27075 0.07569 0.05969 0.07100
H 	H 	0.72895 0.00519 0.98394 0.06800
C 	C 	0.12139 0.08375 0.98986 0.09900
C 	C 	0.77456 0.05245 0.97708 -0.09300
H 	H 	0.13628 0.01864 0.03106 0.06600
C 	C 	0.83454 0.04743 0.45119 0.02500
C 	C 	0.27845 0.11832 0.04388 -0.08500
C 	C 	0.19160 0.09969 0.37040 0.02300
C 	C 	0.13055 0.08472 0.37940 -0.08100
C 	C 	0.82912 0.14021 0.47923 0.12100
C 	C 	0.81891 0.05205 0.94635 0.02100
C 	C 	0.22325 0.12251 0.03181 0.01600
O 	O 	0.79162 0.16146 0.49835 -0.20500
C 	C 	0.31455 0.11440 0.39050 0.00700
H 	H 	0.39517 0.10546 0.41980 0.05000
C 	C 	0.83117 0.00531 0.94268 -0.09500
H 	H 	0.12283 0.12228 0.39368 0.06700
O 	O 	0.73599 0.12061 0.00575 -0.18700
C 	C 	0.78856 0.11539 0.99623 0.11200
C 	C 	0.86579 0.07736 0.41055 0.11100
O 	O 	0.16413 0.14611 0.97374 -0.20200
C 	C 	0.89329 0.01194 0.42602 0.09600
C 	C 	0.37600 0.13570 0.41773 -0.05800
O 	O 	0.39401 0.15898 0.02822 -0.18200
C 	C 	0.87679 0.13838 0.40212 -0.08300
C 	C 	0.87770 0.11188 0.93802 0.11300
H 	H 	0.66788 0.16879 0.29519 0.04500
C 	C 	0.34245 0.16787 0.03097 0.11200
C 	C 	0.22799 0.16742 0.00122 0.12800
C 	C 	0.86008 0.17007 0.43848 0.00400
O 	O 	0.90422 0.05676 0.39217 -0.20000
C 	C 	0.89747 0.03830 0.93177 0.10400
S 	S 	0.62655 0.18928 0.28525 -0.05600
H 	H 	0.90025 0.16174 0.36980 0.06800
C 	C 	0.80260 0.20647 0.46474 0.03300
C 	C 	0.84756 0.17530 0.98801 0.01300
C 	C 	0.89202 0.17480 0.95748 -0.09000
S 	S 	0.49881 0.18104 0.75285 -0.04200
O 	O 	0.92980 0.10650 0.92748 -0.20100
C 	C 	0.25510 0.16565 0.38138 -0.09100
O 	O 	0.53032 0.20453 0.01456 -0.33300
O 	O 	0.66857 0.18770 0.00618 -0.34500
H 	H 	0.62085 0.20024 0.17730 0.05600
C 	C 	0.31698 0.17161 0.38892 0.11900
C 	C 	0.43175 0.20625 0.99664 0.04000
C 	C 	0.76801 0.18844 0.00044 0.04900
C 	C 	0.93855 0.01265 0.94116 0.09000
H 	H 	0.45259 0.19606 0.75586 0.04100
C 	C 	0.29077 0.21362 0.98496 -0.10100
C 	C 	0.34863 0.21581 0.00370 0.02600
C 	C 	0.84300 0.21183 0.42872 -0.05200
O 	O 	0.71452 0.21545 0.48907 -0.41800
C 	C 	0.72649 0.21298 0.98834 0.24600
H 	H 	0.56833 0.21945 0.91850 0.17700
H 	H 	0.53832 0.20742 0.65329 0.04800
C 	C 	0.41587 0.20598 0.42918 0.04600
H 	H 	0.84229 0.22818 0.39188 0.05700
C 	C 	0.50512 0.23575 0.99711 0.24600
H 	H 	0.93760 0.22202 0.95054 0.06600
N 	N 	0.99228 0.01345 0.40870 -0.12800
C 	C 	0.40330 0.23814 0.98030 -0.07000
C 	C 	0.76747 0.23936 0.46516 0.25400
H 	H 	0.25637 0.21065 0.38670 0.07200
C 	C 	0.83474 0.22157 0.99056 -0.06900
Cu	Cu	0.62971 0.24001 0.01166 0.93000
H 	H 	0.61138 0.24197 0.41067 0.16600
H 	H 	0.29300 0.24308 0.95594 0.07300
Cu	Cu	0.67611 0.23571 0.89881 0.87200
O 	O 	0.63087 0.23943 0.83701 -0.41300
O 	O 	0.52231 0.23819 0.48052 -0.36500
O 	O 	0.61719 0.24594 0.93710 -0.64100
O 	O 	0.65707 0.25199 0.08552 -0.35300
C 	C 	0.65816 0.25130 0.20024 -0.01800
O 	O 	0.38087 0.23251 0.41239 -0.18600
C 	C 	0.57470 0.24995 0.73556 0.03800
C 	C 	0.85214 0.00628 0.46150 -0.09300
C 	C 	0.49214 0.24897 0.44213 0.25500
C 	C 	0.57902 0.25122 0.68272 -0.02400
C 	C 	0.67002 0.26086 0.25484 0.03500
O 	O 	0.74377 0.25541 0.95578 -0.43000
H 	H 	0.86047 0.26565 0.97176 0.05300
Cu	Cu	0.72379 0.26905 0.55064 0.87400
O 	O 	0.60521 0.27646 0.57408 -0.38200
H 	H 	0.42832 0.28248 0.96182 0.05800
O 	O 	0.63890 0.28828 0.43248 -0.63800
Cu	Cu	0.62237 0.28970 0.50246 0.89700
C 	C 	0.66372 0.29927 0.12004 0.28600
C 	C 	0.63858 0.29531 0.82853 0.28800
O 	O 	0.54777 0.29827 0.98898 -0.38300
O 	O 	0.79690 0.29939 0.45136 -0.35600
C 	C 	0.65323 0.29834 0.61606 0.28900
O 	O 	0.52808 0.30423 0.42141 -0.36600
O 	O 	0.70926 0.30144 0.61312 -0.41500
C 	C 	0.63047 0.30433 0.77412 -0.07700
C 	C 	0.63800 0.30682 0.66806 -0.07500
C 	C 	0.69055 0.30787 0.17534 -0.07100
O 	O 	0.12684 0.98852 0.38546 -0.18700
C 	C 	0.02914 0.98774 0.41081 0.11400
N 	N 	0.01467 0.96685 0.96488 -0.11500
Cu	Cu	0.67019 0.34701 0.94265 0.89600
Cu	Cu	0.63983 0.37199 0.04766 0.89800
O 	O 	0.68979 0.34637 0.01517 -0.63600
O 	O 	0.63154 0.32652 0.10851 -0.37400
O 	O 	0.72723 0.44575 0.95309 -0.36900
C 	C 	0.73031 0.48479 0.99332 0.24500
O 	O 	0.68151 0.45941 0.02202 -0.36200
O 	O 	0.66451 0.34778 0.86702 -0.38400
H 	H 	0.74002 0.37400 0.03053 0.16600
Cu	Cu	0.74827 0.34377 0.44860 0.92600
Cu	Cu	0.62409 0.34873 0.40671 0.89700
C 	C 	0.71216 0.34016 0.34012 0.28600
O 	O 	0.79126 0.44568 0.46044 -0.34900
O 	O 	0.72552 0.33804 0.51953 -0.63900
O 	O 	0.68475 0.37149 0.35359 -0.37800
C 	C 	0.75730 0.46833 0.47770 0.24800
O 	O 	0.69008 0.42551 0.47612 -0.36600
O 	O 	0.75153 0.33561 0.37547 -0.35500
H 	H 	0.75066 0.38248 0.54370 0.17500
C 	C 	0.68459 0.36369 0.75899 -0.02500
C 	C 	0.68833 0.36532 0.70615 0.03700
H 	H 	0.72587 0.40716 0.78838 0.04800
C 	C 	0.71465 0.32753 0.28477 -0.07200
C 	C 	0.75273 0.38330 0.25979 -0.01800
C 	C 	0.74108 0.37379 0.20528 0.03700
H 	H 	0.78901 0.43448 0.28278 0.05100
O 	O 	0.75666 0.56824 0.50634 -0.19000
O 	O 	0.77591 0.60314 0.03393 -0.19200
C 	C 	0.78088 0.55914 0.00036 0.05400
H 	H 	0.75245 0.67686 0.50821 0.07000
S 	S 	0.78954 0.44480 0.17492 -0.06200
S 	S 	0.75648 0.44055 0.68815 -0.04300
C 	C 	0.79348 0.54172 0.49718 0.04300
C 	C 	0.80380 0.68873 0.51401 -0.09100
H 	H 	0.85319 0.99082 0.49871 0.06700
H 	H 	0.80092 0.72665 0.05456 0.07400
H 	H 	0.80615 0.96142 0.96171 0.06900
H 	H 	0.84828 0.45229 0.16519 0.03900
C 	C 	0.81225 0.63736 0.51867 0.11900
H 	H 	0.81784 0.79988 0.47986 0.06500
C 	C 	0.83201 0.66497 0.02462 0.12700
C 	C 	0.83558 0.72424 0.03270 -0.09900
C 	C 	0.83557 0.59122 0.97406 -0.06500
H 	H 	0.81220 0.43893 0.68696 0.03600
C 	C 	0.86462 0.59033 0.50341 -0.05900
C 	C 	0.86352 0.75493 0.51413 0.02200
C 	C 	0.86386 0.80417 0.49526 -0.08700
H 	H 	0.86420 0.85394 0.02419 0.07000
H 	H 	0.83837 0.56808 0.93802 0.05900
H 	H 	0.89932 0.58331 0.48567 0.05900
C 	C 	0.87623 0.65075 0.51768 0.00900
C 	C 	0.86818 0.65835 0.98973 0.00300
C 	C 	0.88080 0.77766 0.00786 0.03900
C 	C 	0.87507 0.82650 0.99722 -0.10300
N 	N 	0.91197 0.92941 0.45271 -0.12900
C 	C 	0.92802 0.84571 0.48106 0.10200
C 	C 	0.92635 0.76711 0.50988 0.11400
C 	C 	0.93285 0.71384 0.50887 -0.08400
C 	C 	0.90534 0.70813 0.95945 -0.08100
N 	N 	0.90618 0.94491 0.94008 -0.12400
C 	C 	0.91382 0.76969 0.97115 0.10500
C 	C 	0.90982 0.85084 0.95656 0.10500
N 	N 	0.00681 0.93244 0.43315 -0.10700
C 	C 	0.93391 0.98470 0.42985 0.10400
C 	C 	0.94845 0.90309 0.45411 0.09600
O 	O 	0.97059 0.82484 0.48925 -0.19800
H 	H 	0.92364 0.69798 0.92629 0.06600
C 	C 	0.94437 0.92197 0.95144 0.09400
O 	O 	0.93420 0.81507 0.93693 -0.20100
H 	H 	0.97887 0.72042 0.49919 0.06900
