data_crystal

_cell_length_a 38.52578
_cell_length_b 34.19586
_cell_length_c 32.60645
_cell_angle_alpha 92.64473
_cell_angle_beta  85.31691
_cell_angle_gamma 123.95431

_symmetry_space_group_name_	'P 1'
_symmetry_space_group_name_H-M	'P 1'

loop_
_symmetry_equiv_pos_as_xyz
  x,y,z

loop_
_atom_site_label
_atom_site_type_symbol
_atom_site_fract_x
_atom_site_fract_y
_atom_site_fract_z
_atom_site_charge
C 	C 	0.02592 0.02677 0.04047 0.02400
C 	C 	0.03210 0.06593 0.02035 -0.02100
C 	C 	0.06183 0.03679 0.05977 -0.05800
S 	S 	0.08148 0.11070 0.02545 -0.00300
H 	H 	0.01980 0.12941 0.98438 0.04900
C 	C 	0.09592 0.08380 0.05454 0.00100
H 	H 	0.06442 0.00989 0.07251 0.04900
C 	C 	0.22500 0.13191 0.05621 0.01800
C 	C 	0.19583 0.08691 0.04087 -0.04300
C 	C 	0.15360 0.07088 0.04069 -0.03700
C 	C 	0.14001 0.09948 0.05639 0.01100
C 	C 	0.16909 0.14421 0.07223 -0.03700
C 	C 	0.21140 0.16038 0.07212 -0.04300
H 	H 	0.20600 0.06461 0.02863 0.04300
H 	H 	0.13164 0.03664 0.02766 0.04100
H 	H 	0.15895 0.16659 0.08431 0.04200
H 	H 	0.23369 0.19527 0.08384 0.04400
C 	C 	0.02569 0.01506 0.55484 0.02500
C 	C 	0.03065 0.05321 0.53405 -0.02400
C 	C 	0.06245 0.02646 0.57329 -0.05900
S 	S 	0.08000 0.09876 0.53757 -0.00300
H 	H 	0.01649 0.11456 0.49676 0.04900
C 	C 	0.09598 0.07352 0.56673 0.00100
H 	H 	0.06595 0.00038 0.58634 0.04900
C 	C 	0.22590 0.12407 0.56437 0.01800
C 	C 	0.19663 0.07847 0.55023 -0.04300
C 	C 	0.15413 0.06162 0.55144 -0.03800
C 	C 	0.14040 0.09002 0.56734 0.01100
C 	C 	0.16959 0.13534 0.58201 -0.03700
C 	C 	0.21216 0.15232 0.58052 -0.04300
H 	H 	0.20691 0.05633 0.53783 0.04300
H 	H 	0.13205 0.02690 0.53930 0.04100
H 	H 	0.15934 0.15757 0.59423 0.04200
H 	H 	0.23452 0.18765 0.59134 0.04400
Co	Co	0.69314 0.31343 0.97638 1.18300
Co	Co	0.60604 0.30850 0.00652 1.18400
O 	O 	0.63586 0.28526 0.95401 -0.46100
O 	O 	0.65384 0.37521 0.01421 -0.41600
O 	O 	0.69393 0.25125 0.97084 -0.35000
C 	C 	0.69142 0.39751 0.99396 0.33800
O 	O 	0.60176 0.31582 0.94255 -0.36200
C 	C 	0.53005 0.25907 0.03869 0.29300
C 	C 	0.66849 0.30926 0.05642 0.30900
O 	O 	0.55709 0.30349 0.04440 -0.37300
O 	O 	0.54605 0.24204 0.01358 -0.34600
O 	O 	0.70590 0.32483 0.04016 -0.36300
O 	O 	0.64059 0.28733 0.02956 -0.46100
O 	O 	0.70249 0.37582 0.96648 -0.53500
C 	C 	0.72663 0.27039 0.94536 0.29500
C 	C 	0.62644 0.30368 0.92678 0.31000
H 	H 	0.72208 0.39416 0.94182 0.17100
Co	Co	0.69276 0.30092 0.47588 1.18300
Co	Co	0.60680 0.29925 0.50476 1.18400
O 	O 	0.63536 0.27299 0.45360 -0.45800
O 	O 	0.65499 0.36637 0.50971 -0.41400
O 	O 	0.69216 0.23783 0.47269 -0.34900
C 	C 	0.69345 0.38625 0.49177 0.33900
O 	O 	0.60172 0.30359 0.44047 -0.35900
C 	C 	0.53124 0.25195 0.53817 0.29300
C 	C 	0.66910 0.30093 0.55559 0.30800
O 	O 	0.55869 0.29653 0.54234 -0.37200
O 	O 	0.54650 0.23351 0.51384 -0.34700
O 	O 	0.70615 0.31469 0.53949 -0.36400
O 	O 	0.64087 0.27825 0.52919 -0.46300
O 	O 	0.70330 0.36343 0.46435 -0.53600
C 	C 	0.72489 0.25560 0.44731 0.29700
C 	C 	0.62597 0.29053 0.42547 0.31000
C 	C 	0.64436 0.28963 0.79681 0.10600
C 	C 	0.65839 0.27196 0.82441 -0.09400
C 	C 	0.65206 0.27586 0.86686 0.03400
C 	C 	0.63181 0.29782 0.88207 -0.11300
C 	C 	0.61809 0.31589 0.85434 0.03800
C 	C 	0.62443 0.31197 0.81198 -0.09300
H 	H 	0.67434 0.25536 0.81293 0.06400
H 	H 	0.66308 0.26204 0.88783 0.02300
H 	H 	0.60300 0.33354 0.86558 0.03500
H 	H 	0.61447 0.32692 0.79097 0.06600
N 	N 	0.65282 0.28755 0.75390 -0.08800
N 	N 	0.62902 0.28541 0.72882 -0.08700
C 	C 	0.65881 0.29586 0.60043 -0.11100
C 	C 	0.61681 0.26870 0.61623 0.03600
C 	C 	0.60720 0.26472 0.65875 -0.09300
C 	C 	0.63933 0.28754 0.68588 0.10700
C 	C 	0.68134 0.31523 0.67016 -0.09200
C 	C 	0.69100 0.31928 0.62767 0.03800
H 	H 	0.59160 0.25079 0.59564 0.02600
H 	H 	0.57474 0.24403 0.67066 0.06500
H 	H 	0.70640 0.33420 0.69081 0.06500
H 	H 	0.72348 0.34107 0.61596 0.03400
C 	C 	0.63766 0.28631 0.18620 0.10800
C 	C 	0.60595 0.27086 0.15919 -0.09300
C 	C 	0.61586 0.27778 0.11679 0.03700
C 	C 	0.65780 0.30073 0.10106 -0.10900
C 	C 	0.68965 0.31666 0.12826 0.03900
C 	C 	0.67963 0.30951 0.17060 -0.09100
H 	H 	0.57360 0.25367 0.17110 0.06500
H 	H 	0.59099 0.26561 0.09628 0.02200
H 	H 	0.72218 0.33495 0.11670 0.03700
H 	H 	0.70450 0.32270 0.19132 0.06700
N 	N 	0.62753 0.28192 0.22921 -0.08700
N 	N 	0.64622 0.27263 0.25238 -0.08700
C 	C 	0.62880 0.28041 0.38141 -0.11200
C 	C 	0.66467 0.28345 0.36372 0.03600
C 	C 	0.66972 0.27953 0.32107 -0.09400
C 	C 	0.63908 0.27272 0.29578 0.10700
C 	C 	0.60208 0.26712 0.31369 -0.09200
C 	C 	0.59713 0.27128 0.35626 0.04200
H 	H 	0.68924 0.29043 0.38278 0.01100
H 	H 	0.69799 0.28312 0.30756 0.06300
H 	H 	0.57745 0.26014 0.29465 0.06800
H 	H 	0.56888 0.26788 0.36962 0.03700
C 	C 	0.72343 0.43736 0.49725 -0.13200
C 	C 	0.73527 0.45606 0.53657 0.04700
C 	C 	0.73829 0.46807 0.46361 0.07600
H 	H 	0.72361 0.43302 0.56309 0.02300
H 	H 	0.72837 0.45437 0.43313 0.01800
C 	C 	0.35568 0.17643 0.55521 0.05300
N 	N 	0.33575 0.17446 0.59234 -0.10800
C 	C 	0.29424 0.15788 0.59583 0.02400
C 	C 	0.27106 0.14284 0.56077 -0.01800
C 	C 	0.29123 0.14556 0.52229 -0.01700
C 	C 	0.33365 0.16242 0.51942 -0.05800
H 	H 	0.27919 0.15611 0.62587 0.03300
H 	H 	0.27410 0.13475 0.49472 0.03600
H 	H 	0.34939 0.16480 0.48963 0.04700
C 	C 	0.48570 0.23060 0.54478 -0.10400
C 	C 	0.45703 0.18579 0.52896 0.03400
C 	C 	0.41430 0.16745 0.53294 -0.08000
C 	C 	0.40042 0.19404 0.55280 0.06700
N 	N 	0.42853 0.23667 0.56956 -0.11600
C 	C 	0.47047 0.25532 0.56599 0.06800
H 	H 	0.46782 0.16549 0.51320 0.03900
H 	H 	0.39212 0.13297 0.52042 0.05300
H 	H 	0.49195 0.28953 0.57931 0.03500
C 	C 	0.71851 0.44939 0.99705 -0.13200
C 	C 	0.70119 0.47609 0.99720 0.04700
C 	C 	0.72737 0.52513 0.99790 -0.08700
H 	H 	0.66766 0.45895 0.99605 0.02800
H 	H 	0.71403 0.54587 0.99797 0.05400
C 	C 	0.35429 0.18251 0.05140 0.05200
N 	N 	0.33322 0.17989 0.08793 -0.10800
C 	C 	0.29182 0.16374 0.09006 0.02400
C 	C 	0.26997 0.14988 0.05415 -0.01800
C 	C 	0.29131 0.15318 0.01627 -0.01500
C 	C 	0.33358 0.16955 0.01481 -0.05700
H 	H 	0.27584 0.16148 0.11965 0.03300
H 	H 	0.27522 0.14327 0.98807 0.03500
H 	H 	0.35026 0.17248 0.98548 0.04600
C 	C 	0.48437 0.23716 0.04454 -0.10400
C 	C 	0.45633 0.19273 0.02772 0.03400
C 	C 	0.41354 0.17413 0.03062 -0.08000
C 	C 	0.39898 0.20011 0.05042 0.06800
N 	N 	0.42645 0.24228 0.06827 -0.11600
C 	C 	0.46842 0.26115 0.06579 0.06800
H 	H 	0.46766 0.17295 0.01196 0.03900
H 	H 	0.39186 0.13998 0.01727 0.05400
H 	H 	0.48938 0.29501 0.07990 0.03500
H 	H 	0.72397 0.38134 0.44019 0.17000
H 	H 	0.71073 0.17754 0.48367 0.03900
H 	H 	0.71438 0.19226 0.97957 0.03800
C 	C 	0.74009 0.19655 0.46509 0.07000
C 	C 	0.74357 0.21219 0.96084 0.06900
H 	H 	0.77429 0.60771 0.94428 0.04500
C 	C 	0.88415 0.09934 0.95945 -0.04300
H 	H 	0.88940 0.04390 0.97916 0.04300
H 	H 	0.85244 0.08310 0.97305 0.04400
C 	C 	0.87914 0.74868 0.00029 0.02200
C 	C 	0.86118 0.77489 0.00533 -0.04400
C 	C 	0.88675 0.82413 0.00560 -0.03700
H 	H 	0.82741 0.75709 0.00899 0.04400
H 	H 	0.87254 0.84398 0.00967 0.04200
C 	C 	0.90050 0.05957 0.47511 -0.03700
C 	C 	0.87939 0.08148 0.47085 -0.04300
H 	H 	0.88498 0.02688 0.49218 0.04300
H 	H 	0.84751 0.06512 0.48402 0.04400
C 	C 	0.88126 0.73582 0.51936 0.01800
C 	C 	0.86355 0.76151 0.53065 -0.04300
C 	C 	0.88866 0.81077 0.53045 -0.03800
H 	H 	0.83031 0.74329 0.53932 0.04300
H 	H 	0.87466 0.83027 0.53903 0.04200
O 	O 	0.73994 0.31368 0.93856 -0.38200
O 	O 	0.73902 0.29887 0.43927 -0.38200
C 	C 	0.80324 0.58606 0.51191 0.05100
N 	N 	0.79600 0.61337 0.48977 -0.10700
C 	C 	0.82052 0.66127 0.49197 0.02400
C 	C 	0.85431 0.68382 0.51728 -0.01800
C 	C 	0.86249 0.65645 0.54008 -0.01800
C 	C 	0.83713 0.60742 0.53719 -0.05800
H 	H 	0.81399 0.68185 0.47374 0.03400
H 	H 	0.88848 0.67309 0.55978 0.03500
H 	H 	0.84408 0.58625 0.55398 0.04500
C 	C 	0.76188 0.50473 0.54170 -0.08600
C 	C 	0.77673 0.53439 0.50720 0.06900
N 	N 	0.76439 0.51544 0.46922 -0.11800
H 	H 	0.77022 0.51934 0.57227 0.05300
C 	C 	0.80326 0.20388 0.44061 0.06700
N 	N 	0.76603 0.18123 0.46354 -0.11600
C 	C 	0.75172 0.23718 0.44349 -0.10500
C 	C 	0.78960 0.26055 0.41919 0.03400
C 	C 	0.81555 0.24396 0.41778 -0.08100
H 	H 	0.79913 0.29169 0.40184 0.03400
H 	H 	0.84531 0.26257 0.39977 0.05200
C 	C 	0.87755 0.14844 0.44675 -0.01800
C 	C 	0.86976 0.15729 0.40820 -0.01700
C 	C 	0.84660 0.17703 0.40583 -0.05800
C 	C 	0.83139 0.18774 0.44218 0.05200
N 	N 	0.83980 0.17942 0.47938 -0.10700
C 	C 	0.86264 0.16060 0.48236 0.02400
H 	H 	0.88081 0.14798 0.38026 0.03600
H 	H 	0.83955 0.18276 0.37608 0.04600
H 	H 	0.86870 0.15443 0.51245 0.03400
C 	C 	0.79912 0.59895 0.99778 0.05000
N 	N 	0.82818 0.62140 0.02640 -0.10700
C 	C 	0.85430 0.66929 0.02744 0.02700
C 	C 	0.85203 0.69672 0.99845 -0.02200
C 	C 	0.82310 0.67423 0.96820 -0.01600
C 	C 	0.79659 0.62521 0.96777 -0.05900
H 	H 	0.87655 0.68607 0.05102 0.03300
H 	H 	0.82115 0.69467 0.94519 0.03500
C 	C 	0.77086 0.54720 0.99831 0.06900
N 	N 	0.78707 0.52063 0.99936 -0.11900
C 	C 	0.76204 0.47265 0.99861 0.07300
H 	H 	0.77597 0.45258 0.99912 0.01800
C 	C 	0.83611 0.20629 0.93518 0.05200
N 	N 	0.84537 0.19775 0.97180 -0.10700
C 	C 	0.86847 0.17906 0.97357 0.02200
C 	C 	0.88274 0.16723 0.93727 -0.01700
C 	C 	0.87424 0.17652 0.89929 -0.01700
C 	C 	0.85086 0.19615 0.89817 -0.05800
H 	H 	0.87511 0.17260 0.00322 0.03500
H 	H 	0.88481 0.16751 0.87084 0.03600
H 	H 	0.84317 0.20211 0.86887 0.04600
C 	C 	0.75425 0.25304 0.94025 -0.10600
C 	C 	0.79194 0.27761 0.91572 0.03400
C 	C 	0.81861 0.26193 0.91308 -0.08100
C 	C 	0.80725 0.22158 0.93493 0.06700
N 	N 	0.77021 0.19778 0.95811 -0.11600
H 	H 	0.80075 0.30895 0.89913 0.03400
H 	H 	0.84820 0.28142 0.89486 0.05200
C 	C 	0.90497 0.07689 0.96255 -0.03700
C 	C 	0.89946 0.12461 0.44996 0.01800
H 	H 	0.92950 0.91621 0.95422 0.04900
C 	C 	0.90432 0.14285 0.93919 0.01700
H 	H 	0.92744 0.90066 0.47220 0.05000
C 	C 	0.97926 0.01335 0.97336 -0.02200
C 	C 	0.96900 0.97434 0.99659 0.02300
S 	S 	0.94533 0.01605 0.94731 -0.00600
C 	C 	0.94857 0.92791 0.98043 -0.06100
C 	C 	0.96859 0.07455 0.94894 0.00200
C 	C 	0.95763 0.89949 0.00043 0.00300
C 	C 	0.94535 0.16345 0.92158 -0.04300
C 	C 	0.96613 0.14085 0.92447 -0.03800
C 	C 	0.94604 0.09746 0.94493 0.01100
H 	H 	0.96125 0.19712 0.90603 0.04200
C 	C 	0.93057 0.84762 0.00086 0.01200
C 	C 	0.94855 0.82144 0.99661 -0.03800
C 	C 	0.92295 0.77216 0.99618 -0.04600
H 	H 	0.93712 0.75225 0.99222 0.04400
C 	C 	0.97670 0.99844 0.48893 -0.02300
C 	C 	0.96763 0.96042 0.51291 0.02500
S 	S 	0.94175 0.99946 0.46313 -0.00500
C 	C 	0.94744 0.91360 0.49774 -0.06000
C 	C 	0.96461 0.05791 0.46314 0.00200
C 	C 	0.95803 0.88655 0.51766 0.00200
C 	C 	0.94071 0.14536 0.43292 -0.04300
C 	C 	0.96177 0.12330 0.43696 -0.03800
C 	C 	0.94179 0.08030 0.45805 0.01100
H 	H 	0.95654 0.17875 0.41690 0.04300
C 	C 	0.93174 0.83478 0.51917 0.01100
C 	C 	0.94966 0.80917 0.50890 -0.03700
C 	C 	0.92450 0.75988 0.50877 -0.04300
H 	H 	0.93848 0.74042 0.49991 0.04300
C 	C 	0.00980 0.05941 0.98592 0.02300
C 	C 	0.99261 0.98125 0.03010 -0.02100
C 	C 	0.99246 0.96893 0.54579 -0.02300
C 	C 	0.00376 0.09388 0.97216 -0.05900
S 	S 	0.98924 0.93135 0.03782 -0.00500
H 	H 	0.99786 0.15711 0.91094 0.04100
H 	H 	0.98233 0.83926 0.99314 0.04100
C 	C 	0.00724 0.04505 0.50013 0.02500
C 	C 	0.00039 0.07857 0.48563 -0.05900
S 	S 	0.99044 0.91991 0.55402 -0.00600
H 	H 	0.99365 0.13967 0.42381 0.04100
H 	H 	0.98293 0.82745 0.50039 0.04200
