data_crystal

_cell_length_a 18.57367
_cell_length_b 18.95719
_cell_length_c 34.77973
_cell_angle_alpha 95.43041
_cell_angle_beta  95.43048
_cell_angle_gamma 126.41529

_symmetry_space_group_name_	'P 1'
_symmetry_space_group_name_H-M	'P 1'

loop_
_symmetry_equiv_pos_as_xyz
  x,y,z

loop_
_atom_site_label
_atom_site_type_symbol
_atom_site_fract_x
_atom_site_fract_y
_atom_site_fract_z
_atom_site_charge
C 	C 	0.91261 0.99264 0.96161 0.04200
C 	C 	0.00596 0.04639 0.96075 -0.06700
C 	C 	0.05336 0.01031 0.96204 0.02700
C 	C 	0.00712 0.91963 0.96280 -0.05800
C 	C 	0.91338 0.86444 0.96257 0.02900
C 	C 	0.86587 0.90111 0.96248 -0.06700
H 	H 	0.04224 0.11690 0.96036 0.06000
H 	H 	0.04418 0.89198 0.96375 0.05700
H 	H 	0.79372 0.85917 0.96326 0.05800
C 	C 	0.93697 0.04033 0.49510 0.01900
C 	C 	0.88341 0.94878 0.49556 -0.05500
C 	C 	0.92299 0.90499 0.49606 0.02400
C 	C 	0.01610 0.95250 0.49588 -0.05200
C 	C 	0.07030 0.04432 0.49612 0.02100
C 	C 	0.03065 0.08833 0.49545 -0.05700
H 	H 	0.81106 0.91172 0.49543 0.05600
H 	H 	0.04669 0.91840 0.49628 0.05600
H 	H 	0.07234 0.15932 0.49530 0.05500
Cu	Cu	0.76554 0.33959 0.95921 0.92600
Cu	Cu	0.75701 0.27655 0.04437 0.87900
Cu	Cu	0.62347 0.30018 0.00957 0.89900
Cu	Cu	0.59536 0.33202 0.92885 0.90100
C 	C 	0.69619 0.30249 0.87642 0.31100
O 	O 	0.81717 0.46915 0.95646 -0.35300
C 	C 	0.67756 0.32601 0.09560 0.30600
O 	O 	0.62365 0.26700 0.95556 -0.63700
O 	O 	0.75644 0.35810 0.01501 -0.63900
O 	O 	0.82681 0.28099 0.96453 -0.36100
O 	O 	0.72842 0.18887 0.00175 -0.42900
O 	O 	0.66109 0.34430 0.88475 -0.37200
O 	O 	0.49278 0.23497 0.00188 -0.37900
C 	C 	0.44098 0.22689 0.97034 0.29300
C 	C 	0.77611 0.50270 0.96847 0.28300
O 	O 	0.69187 0.44891 0.97365 -0.38800
O 	O 	0.47594 0.28060 0.94478 -0.38000
O 	O 	0.75099 0.30305 0.90383 -0.36300
C 	C 	0.78859 0.20786 0.97954 0.28800
O 	O 	0.62464 0.32358 0.06628 -0.37500
O 	O 	0.75186 0.33527 0.09036 -0.39600
H 	H 	0.58393 0.20189 0.94531 0.16900
H 	H 	0.79591 0.42092 0.02909 0.18300
Cu	Cu	0.60949 0.20912 0.50716 0.92900
Cu	Cu	0.66295 0.21641 0.41970 0.87800
Cu	Cu	0.65443 0.35426 0.46028 0.90000
Cu	Cu	0.62726 0.37854 0.54217 0.90000
C 	C 	0.65341 0.27165 0.59059 0.31200
O 	O 	0.48141 0.16378 0.51270 -0.35700
C 	C 	0.61357 0.30169 0.37302 0.30800
O 	O 	0.68892 0.34867 0.51299 -0.63900
O 	O 	0.58779 0.22247 0.45241 -0.64000
O 	O 	0.65988 0.14245 0.49751 -0.36800
O 	O 	0.75337 0.23782 0.45981 -0.43200
O 	O 	0.61333 0.30938 0.58446 -0.37200
O 	O 	0.72710 0.48253 0.47089 -0.37500
C 	C 	0.72150 0.53084 0.49863 0.29700
C 	C 	0.44878 0.20556 0.50136 0.28600
O 	O 	0.50472 0.28949 0.49806 -0.38900
O 	O 	0.68511 0.49965 0.52963 -0.38500
O 	O 	0.64972 0.21858 0.56162 -0.36300
C 	C 	0.73243 0.17730 0.48133 0.29300
O 	O 	0.63540 0.36125 0.40421 -0.36200
O 	O 	0.60075 0.22660 0.37653 -0.41400
H 	H 	0.75542 0.38495 0.52262 0.17100
H 	H 	0.52315 0.18740 0.43943 0.18300
C 	C 	0.74146 0.34519 0.69994 -0.11100
C 	C 	0.70135 0.26276 0.71184 0.00600
C 	C 	0.65646 0.18438 0.68331 0.12100
C 	C 	0.64594 0.18812 0.64327 -0.03000
C 	C 	0.68067 0.26997 0.63151 -0.12000
C 	C 	0.73210 0.34913 0.65996 0.19200
C 	C 	0.69719 0.25781 0.75383 0.00900
O 	O 	0.61865 0.10355 0.69455 -0.27200
H 	H 	0.60728 0.12693 0.62155 0.06600
O 	O 	0.76950 0.43002 0.64883 -0.29800
H 	H 	0.77708 0.40594 0.72176 0.07500
C 	C 	0.77702 0.29551 0.78158 0.11700
C 	C 	0.77517 0.30435 0.82189 -0.03000
C 	C 	0.69415 0.27674 0.83471 -0.11900
C 	C 	0.61301 0.23297 0.80690 0.19300
C 	C 	0.61495 0.22434 0.76667 -0.10800
O 	O 	0.85672 0.32344 0.76938 -0.27000
H 	H 	0.83760 0.33629 0.84308 0.06500
O 	O 	0.53246 0.20200 0.81898 -0.29300
H 	H 	0.55302 0.19429 0.74543 0.08500
H 	H 	0.83133 0.45196 0.64491 0.14600
H 	H 	0.88862 0.38749 0.76840 0.14700
H 	H 	0.50511 0.13970 0.82193 0.15200
H 	H 	0.66724 0.09597 0.69634 0.15400
C 	C 	0.65179 0.27986 0.19880 -0.11400
C 	C 	0.62445 0.33071 0.21281 0.00400
C 	C 	0.61273 0.37902 0.18802 0.12200
C 	C 	0.62986 0.37724 0.14963 -0.03100
C 	C 	0.65791 0.32674 0.13572 -0.11900
C 	C 	0.66739 0.27677 0.16035 0.19000
C 	C 	0.60963 0.33392 0.25371 0.00700
O 	O 	0.58683 0.42970 0.20153 -0.26900
H 	H 	0.62229 0.41584 0.13090 0.06600
O 	O 	0.69273 0.22546 0.14697 -0.29500
H 	H 	0.66067 0.24236 0.21777 0.07100
C 	C 	0.53303 0.25888 0.26431 0.11700
C 	C 	0.53052 0.25245 0.30402 -0.03100
C 	C 	0.60469 0.32005 0.33332 -0.11600
C 	C 	0.67741 0.39875 0.32287 0.18900
C 	C 	0.67928 0.40560 0.28314 -0.10800
O 	O 	0.46126 0.19114 0.23586 -0.27100
H 	H 	0.47294 0.19285 0.31190 0.06200
O 	O 	0.74819 0.46768 0.35129 -0.27600
H 	H 	0.73755 0.46447 0.27518 0.08100
H 	H 	0.63487 0.16593 0.13531 0.14000
H 	H 	0.47458 0.14820 0.22988 0.14400
H 	H 	0.79348 0.45576 0.35456 0.14000
H 	H 	0.51930 0.38926 0.19506 0.15500
C 	C 	0.86713 0.80930 0.49744 0.01900
C 	C 	0.80982 0.74665 0.46306 -0.05900
C 	C 	0.75994 0.65526 0.46321 0.02800
C 	C 	0.76886 0.62620 0.49805 -0.08000
C 	C 	0.82440 0.68908 0.53268 0.01200
C 	C 	0.87282 0.78025 0.53263 -0.04000
H 	H 	0.80434 0.76918 0.43615 0.05500
H 	H 	0.83063 0.66694 0.55960 0.04200
C 	C 	0.92753 0.84364 0.56888 0.09300
C 	C 	0.69767 0.59191 0.42794 0.08200
N 	N 	0.97126 0.89439 0.59793 -0.10400
N 	N 	0.64780 0.54127 0.39967 -0.09400
C 	C 	0.89355 0.08458 0.49223 0.01900
C 	C 	0.86017 0.08708 0.45497 -0.06300
C 	C 	0.80585 0.11538 0.45098 0.02800
C 	C 	0.78637 0.14382 0.48479 -0.09000
C 	C 	0.82122 0.14289 0.52216 0.01500
C 	C 	0.87482 0.11359 0.52605 -0.04200
H 	H 	0.87381 0.06381 0.42896 0.05300
H 	H 	0.80700 0.16542 0.54819 0.04300
C 	C 	0.90997 0.11297 0.56478 0.09200
C 	C 	0.76678 0.11093 0.41202 0.04600
N 	N 	0.93817 0.11241 0.59579 -0.10900
N 	N 	0.73551 0.10732 0.38082 -0.13500
C 	C 	0.16922 0.09450 0.49836 0.01900
C 	C 	0.20497 0.11273 0.46375 -0.06000
C 	C 	0.29605 0.14774 0.46421 0.02500
C 	C 	0.35183 0.16413 0.49959 -0.08300
C 	C 	0.31654 0.14755 0.53431 0.01100
C 	C 	0.22605 0.11404 0.53399 -0.04000
H 	H 	0.16122 0.09757 0.43632 0.05300
H 	H 	0.36012 0.16226 0.56173 0.04300
C 	C 	0.19214 0.10081 0.57041 0.09300
C 	C 	0.33118 0.16477 0.42810 0.06500
N 	N 	0.16500 0.09030 0.59958 -0.10500
N 	N 	0.35939 0.17845 0.39921 -0.11300
C 	C 	0.81637 0.59717 0.96783 -0.08000
C 	C 	0.83044 0.62710 0.93194 0.00700
C 	C 	0.85384 0.71145 0.92904 -0.03800
C 	C 	0.86595 0.76812 0.96263 0.01500
C 	C 	0.85054 0.73767 0.99840 -0.05800
C 	C 	0.82600 0.65279 0.00119 0.02300
H 	H 	0.82051 0.58362 0.90595 0.04400
H 	H 	0.86092 0.78136 0.02442 0.05500
C 	C 	0.81283 0.62405 0.03862 0.06900
C 	C 	0.86543 0.73957 0.89147 0.09000
N 	N 	0.80223 0.60094 0.06858 -0.11100
N 	N 	0.87477 0.76219 0.86140 -0.11000
C 	C 	0.81966 0.15176 0.97489 -0.08500
C 	C 	0.81745 0.11634 0.93709 0.01000
C 	C 	0.84052 0.05798 0.93211 -0.03500
C 	C 	0.86656 0.03486 0.96525 0.00700
C 	C 	0.86623 0.06828 0.00290 -0.05600
C 	C 	0.84453 0.12751 0.00799 0.02400
H 	H 	0.79700 0.13349 0.91153 0.04500
H 	H 	0.88751 0.05176 0.02846 0.05400
C 	C 	0.85239 0.16648 0.04741 0.04800
C 	C 	0.83788 0.02254 0.89294 0.08400
N 	N 	0.85872 0.19767 0.07898 -0.13100
N 	N 	0.83582 0.99410 0.86156 -0.10400
C 	C 	0.15260 0.06828 0.96400 0.01700
C 	C 	0.18751 0.06187 0.93096 -0.05900
C 	C 	0.28163 0.11212 0.93288 0.02500
C 	C 	0.34178 0.17053 0.96814 -0.08200
C 	C 	0.30675 0.17686 0.00120 0.01300
C 	C 	0.21262 0.12593 0.99935 -0.04100
H 	H 	0.14121 0.01669 0.90392 0.05700
H 	H 	0.35288 0.22198 0.02828 0.04600
C 	C 	0.17805 0.13235 0.03397 0.08900
C 	C 	0.31587 0.10120 0.89899 0.06700
N 	N 	0.15026 0.13744 0.06166 -0.11400
N 	N 	0.34331 0.09247 0.87186 -0.11400
