data_crystal

_cell_length_a 26.22769
_cell_length_b 26.51065
_cell_length_c 39.84939
_cell_angle_alpha 95.49024
_cell_angle_beta  95.48503
_cell_angle_gamma 125.88861

_symmetry_space_group_name_	'P 1'
_symmetry_space_group_name_H-M	'P 1'

loop_
_symmetry_equiv_pos_as_xyz
  x,y,z

loop_
_atom_site_label
_atom_site_type_symbol
_atom_site_fract_x
_atom_site_fract_y
_atom_site_fract_z
_atom_site_charge
C 	C 	0.93901 0.00864 0.98567 0.06700
C 	C 	0.00303 0.03997 0.98179 -0.07300
C 	C 	0.03157 0.00882 0.98388 0.07500
H 	H 	0.03039 0.08814 0.97716 0.07500
C 	C 	0.02745 0.05806 0.46700 -0.06500
C 	C 	0.06129 0.03243 0.46899 0.06600
H 	H 	0.05240 0.10768 0.46546 0.07900
Cu	Cu	0.62015 0.23109 0.00126 0.92700
Cu	Cu	0.65653 0.22402 0.92525 0.89000
Cu	Cu	0.64104 0.33093 0.95991 0.91800
Cu	Cu	0.60541 0.33742 0.02839 0.90200
C 	C 	0.63690 0.27320 0.07374 0.28900
O 	O 	0.52451 0.18341 0.00056 -0.35200
C 	C 	0.65909 0.31604 0.89213 0.30700
O 	O 	0.66117 0.32830 0.00691 -0.63800
O 	O 	0.60790 0.23998 0.95272 -0.62700
O 	O 	0.67603 0.20232 0.99955 -0.35200
O 	O 	0.63909 0.15355 0.94342 -0.40500
O 	O 	0.60095 0.29184 0.06627 -0.37100
O 	O 	0.67924 0.42020 0.96819 -0.35700
C 	C 	0.67668 0.45087 0.99531 0.31100
C 	C 	0.49401 0.20598 0.98935 0.30000
O 	O 	0.52634 0.26634 0.98759 -0.36600
O 	O 	0.63538 0.42061 0.01569 -0.36500
O 	O 	0.64189 0.23880 0.04992 -0.34900
C 	C 	0.66978 0.16267 0.97394 0.31300
O 	O 	0.62991 0.33067 0.91120 -0.35200
O 	O 	0.69416 0.30028 0.90604 -0.40600
H 	H 	0.70713 0.35928 0.01745 0.17200
H 	H 	0.56232 0.21183 0.94127 0.17500
Cu	Cu	0.76038 0.35487 0.46319 0.93100
Cu	Cu	0.75320 0.30602 0.53581 0.87600
Cu	Cu	0.66143 0.32675 0.50808 0.90100
Cu	Cu	0.64177 0.35316 0.43865 0.91100
C 	C 	0.71026 0.33006 0.39122 0.30400
O 	O 	0.79940 0.44735 0.46164 -0.34500
C 	C 	0.70449 0.34766 0.58328 0.29000
O 	O 	0.66078 0.30481 0.46060 -0.63800
O 	O 	0.75477 0.36714 0.51210 -0.63800
O 	O 	0.80270 0.31235 0.46702 -0.34700
O 	O 	0.73080 0.24451 0.49720 -0.42800
O 	O 	0.68531 0.35979 0.39901 -0.35600
O 	O 	0.56953 0.28126 0.50171 -0.36200
C 	C 	0.53364 0.28054 0.47576 0.31400
C 	C 	0.77109 0.47236 0.47166 0.30400
O 	O 	0.71267 0.43545 0.47755 -0.37400
O 	O 	0.55915 0.31979 0.45404 -0.36900
O 	O 	0.74919 0.32972 0.41466 -0.33500
C 	C 	0.77258 0.25771 0.47734 0.30600
O 	O 	0.66202 0.33897 0.55785 -0.37000
O 	O 	0.75348 0.34829 0.57738 -0.40800
H 	H 	0.63236 0.25875 0.45110 0.18300
H 	H 	0.78303 0.41137 0.52497 0.18300
C 	C 	0.69678 0.35664 0.61914 -0.07900
C 	C 	0.75012 0.38825 0.64605 0.01800
C 	C 	0.74178 0.38879 0.68018 -0.06000
C 	C 	0.68011 0.35813 0.68780 0.03100
C 	C 	0.62714 0.32953 0.66103 -0.05800
C 	C 	0.63539 0.32877 0.62686 0.01700
C 	C 	0.67056 0.35144 0.72351 0.00800
C 	C 	0.63439 0.29097 0.73211 -0.03400
C 	C 	0.62970 0.28463 0.76633 -0.02600
C 	C 	0.66119 0.33861 0.79222 0.00100
C 	C 	0.69613 0.39903 0.78365 -0.02400
C 	C 	0.70075 0.40546 0.74939 -0.03300
C 	C 	0.66033 0.33196 0.82768 0.05800
C 	C 	0.65972 0.32529 0.85720 -0.09400
H 	H 	0.79790 0.41115 0.64054 0.04300
H 	H 	0.78304 0.41136 0.70066 0.05700
H 	H 	0.57940 0.30642 0.66666 0.05900
H 	H 	0.59382 0.30454 0.60642 0.05000
H 	H 	0.61113 0.24898 0.71238 0.05000
H 	H 	0.60256 0.23777 0.77277 0.04900
H 	H 	0.72048 0.44098 0.80352 0.05800
H 	H 	0.72850 0.45234 0.74302 0.05400
C 	C 	0.65790 0.27705 0.11020 -0.07600
C 	C 	0.65339 0.22594 0.12118 0.02300
C 	C 	0.66729 0.22738 0.15622 -0.05800
C 	C 	0.68603 0.27996 0.18053 0.03300
C 	C 	0.69263 0.33187 0.16947 -0.05800
C 	C 	0.67868 0.33043 0.13451 0.01900
C 	C 	0.69463 0.27910 0.21758 0.00900
C 	C 	0.64198 0.23545 0.23185 -0.03200
C 	C 	0.64752 0.24073 0.26749 -0.02500
C 	C 	0.70568 0.28959 0.28909 0.00700
C 	C 	0.75922 0.33114 0.27486 -0.02400
C 	C 	0.75376 0.32588 0.23921 -0.03200
C 	C 	0.70817 0.30199 0.32545 0.05900
C 	C 	0.70952 0.31390 0.35565 -0.07300
H 	H 	0.63738 0.18441 0.10272 0.05200
H 	H 	0.66236 0.18721 0.16449 0.06100
H 	H 	0.70710 0.37269 0.18803 0.05900
H 	H 	0.68304 0.37043 0.12634 0.03500
H 	H 	0.59617 0.19904 0.21539 0.05400
H 	H 	0.60596 0.20832 0.27830 0.05500
H 	H 	0.80443 0.36887 0.29138 0.05900
H 	H 	0.79487 0.35941 0.22845 0.05400
C 	C 	0.76487 0.55618 0.45221 0.15500
C 	C 	0.80007 0.53933 0.47043 -0.09700
H 	H 	0.89021 0.57441 0.50193 0.06400
Br	Br	0.68367 0.49318 0.42253 -0.25100
C 	C 	0.92774 0.04906 0.46928 -0.01200
C 	C 	0.94605 0.09764 0.49670 0.10400
C 	C 	0.91915 0.13008 0.49506 -0.05700
C 	C 	0.87066 0.11167 0.46745 0.00700
C 	C 	0.84997 0.06095 0.44086 0.10500
C 	C 	0.87930 0.03064 0.44161 -0.06500
H 	H 	0.93451 0.16839 0.51583 0.08200
C 	C 	0.84005 0.14406 0.46746 0.03100
C 	C 	0.85270 0.18557 0.44464 -0.08300
C 	C 	0.82709 0.21947 0.44572 0.14900
C 	C 	0.79315 0.21627 0.47205 -0.10100
C 	C 	0.77930 0.17326 0.49424 -0.01400
C 	C 	0.80115 0.13630 0.49147 0.07900
H 	H 	0.88118 0.19034 0.42546 0.09100
H 	H 	0.75160 0.16861 0.51382 0.05600
Br	Br	0.78049 0.03110 0.40392 -0.19900
Br	Br	0.00456 0.11759 0.53755 -0.17700
Br	Br	0.83195 0.26227 0.40847 -0.19600
Br	Br	0.77602 0.07425 0.52026 -0.19900
C 	C 	0.13089 0.07316 0.47035 -0.01900
C 	C 	0.17361 0.09971 0.50206 0.11000
C 	C 	0.23949 0.13458 0.50281 -0.06200
C 	C 	0.26323 0.14355 0.47215 0.01000
C 	C 	0.22059 0.11790 0.44046 0.10400
C 	C 	0.15468 0.08291 0.43970 -0.05500
H 	H 	0.27229 0.15458 0.52723 0.08400
C 	C 	0.33264 0.17897 0.47344 0.03000
C 	C 	0.35941 0.14619 0.47186 -0.08400
C 	C 	0.42511 0.17893 0.47261 0.14900
C 	C 	0.46469 0.24528 0.47536 -0.09500
C 	C 	0.43789 0.27805 0.47715 -0.00600
C 	C 	0.37217 0.24525 0.47624 0.08400
H 	H 	0.32897 0.09511 0.46964 0.08900
H 	H 	0.46821 0.32912 0.47934 0.07300
Br	Br	0.25158 0.13006 0.39800 -0.19300
Br	Br	0.14272 0.08856 0.54454 -0.18100
Br	Br	0.45931 0.13190 0.46820 -0.23100
Br	Br	0.33710 0.29163 0.47857 -0.18700
Br	Br	0.58910 0.49504 0.97876 -0.19400
C 	C 	0.71189 0.14318 0.97713 -0.10600
C 	C 	0.77787 0.18698 0.97711 0.15000
C 	C 	0.81709 0.16734 0.97893 -0.08600
C 	C 	0.79107 0.10412 0.98038 0.03200
C 	C 	0.72519 0.06037 0.98060 0.07700
C 	C 	0.68590 0.08004 0.97885 -0.00300
H 	H 	0.86775 0.20108 0.97876 0.08900
C 	C 	0.83305 0.08405 0.98145 0.00800
H 	H 	0.63515 0.04617 0.97872 0.06400
C 	C 	0.86454 0.08811 0.01321 -0.06200
C 	C 	0.90239 0.06684 0.01476 0.10900
C 	C 	0.90894 0.04124 0.98429 -0.02000
C 	C 	0.87964 0.03968 0.95247 -0.05500
C 	C 	0.84182 0.06099 0.95091 0.10400
H 	H 	0.85886 0.10696 0.03672 0.08300
Br	Br	0.81486 0.27332 0.97343 -0.26400
Br	Br	0.94409 0.07227 0.05871 -0.19600
Br	Br	0.80131 0.05689 0.90692 -0.20200
C 	C 	0.09857 0.04085 0.97927 -0.01900
C 	C 	0.11305 0.01554 0.95229 0.10500
C 	C 	0.17658 0.03875 0.95204 -0.06200
C 	C 	0.22627 0.08878 0.97774 0.01000
C 	C 	0.21233 0.11789 0.00291 0.10600
C 	C 	0.14858 0.09309 0.00394 -0.05200
H 	H 	0.18734 0.01785 0.93186 0.08100
C 	C 	0.29282 0.11105 0.97781 0.03000
H 	H 	0.13784 0.11369 0.02430 0.08300
C 	C 	0.32583 0.14630 0.95331 -0.08500
C 	C 	0.39042 0.17209 0.95467 0.14900
C 	C 	0.42335 0.16520 0.98179 -0.09500
C 	C 	0.38894 0.12563 0.00461 -0.01100
C 	C 	0.32365 0.09774 0.00238 0.08600
H 	H 	0.30136 0.15391 0.93327 0.08900
H 	H 	0.41337 0.11836 0.02486 0.07300
Br	Br	0.27970 0.19196 0.03574 -0.19100
Br	Br	0.43161 0.21305 0.91815 -0.22700
Br	Br	0.27744 0.04173 0.03304 -0.19000
C 	C 	0.92929 0.86116 0.46992 -0.01900
C 	C 	0.90974 0.83573 0.49967 0.11000
C 	C 	0.88478 0.77243 0.49995 -0.06000
C 	C 	0.88109 0.73475 0.47118 0.01100
C 	C 	0.90082 0.76026 0.44150 0.10100
C 	C 	0.92378 0.82282 0.44083 -0.05500
H 	H 	0.86914 0.75280 0.52273 0.08500
C 	C 	0.85337 0.66767 0.47161 0.03100
H 	H 	0.93939 0.84238 0.41802 0.07600
C 	C 	0.79095 0.62004 0.45380 -0.08400
C 	C 	0.86263 0.58701 0.48826 -0.00700
C 	C 	0.88960 0.65102 0.48869 0.08200
H 	H 	0.76338 0.63272 0.44018 0.09200
Br	Br	0.89923 0.71118 0.40213 -0.19500
Br	Br	0.97631 0.71486 0.51208 -0.19500
C 	C 	0.87660 0.82825 0.02703 0.11100
C 	C 	0.84004 0.76382 0.02877 -0.06100
C 	C 	0.82013 0.71842 0.99942 0.01200
C 	C 	0.83617 0.73768 0.96795 0.10400
C 	C 	0.87237 0.80198 0.96617 -0.05200
H 	H 	0.82775 0.74906 0.05302 0.08500
C 	C 	0.78333 0.65094 0.00187 0.02900
C 	C 	0.71622 0.61237 0.99401 -0.08200
C 	C 	0.68066 0.54690 0.99239 0.15200
C 	C 	0.71246 0.51978 0.99932 -0.09300
C 	C 	0.77946 0.55869 0.00830 -0.01000
C 	C 	0.81498 0.62405 0.00967 0.08500
H 	H 	0.69178 0.63304 0.98806 0.09100
H 	H 	0.80401 0.53796 0.01375 0.06000
Br	Br	0.80964 0.67679 0.92724 -0.19100
Br	Br	0.90678 0.67571 0.02133 -0.19200
H 	H 	0.12186 0.06259 0.41528 0.07600
H 	H 	0.88474 0.02018 0.92897 0.07700
H 	H 	0.88485 0.81671 0.94194 0.08400
Br	Br	0.91945 0.88739 0.54063 -0.18400
C 	C 	0.89286 0.84747 0.99557 -0.02000
C 	C 	0.96193 0.02033 0.46835 0.05900
C 	C 	0.96316 0.92955 0.47039 0.06800
H 	H 	0.87847 0.92588 0.46949 0.07900
Br	Br	0.90515 0.88937 0.06797 -0.18600
H 	H 	0.05537 0.94840 0.47178 0.07900
C 	C 	0.93181 0.91497 0.99316 0.07900
C 	C 	0.92943 0.95559 0.46930 -0.06400
H 	H 	0.01858 0.92327 0.99289 0.09000
H 	H 	0.85320 0.92094 0.99265 0.08300
C 	C 	0.02912 0.96824 0.47050 -0.06400
C 	C 	0.90321 0.94579 0.99069 -0.06800
C 	C 	0.99633 0.94702 0.99063 -0.07700
Br	Br	0.04698 0.95084 0.91498 -0.20000
H 	H 	0.86454 0.99289 0.42063 0.08300
Br	Br	0.68806 0.97356 0.98298 -0.18200
