data_crystal

_cell_length_a 25.45531
_cell_length_b 25.85638
_cell_length_c 35.08829
_cell_angle_alpha 95.53476
_cell_angle_beta  95.53796
_cell_angle_gamma 125.67581

_symmetry_space_group_name_	'P 1'
_symmetry_space_group_name_H-M	'P 1'

loop_
_symmetry_equiv_pos_as_xyz
  x,y,z

loop_
_atom_site_label
_atom_site_type_symbol
_atom_site_fract_x
_atom_site_fract_y
_atom_site_fract_z
_atom_site_charge
N 	N 	0.01701 0.96502 0.98755 -0.13500
C 	C 	0.05728 0.03066 0.99219 0.11400
N 	N 	0.03376 0.06493 0.00137 -0.13200
N 	N 	0.00306 0.03521 0.45544 -0.13600
C 	C 	0.03550 0.01193 0.46943 0.12100
N 	N 	0.00140 0.95316 0.48018 -0.13100
C 	C 	0.21124 0.06112 0.46484 -0.00000
C 	C 	0.27540 0.08125 0.47744 -0.05400
C 	C 	0.32546 0.12861 0.46011 0.01400
C 	C 	0.31137 0.15683 0.43241 0.00100
C 	C 	0.24932 0.14376 0.42458 -0.05900
C 	C 	0.19861 0.09412 0.44041 0.02500
S 	S 	0.15122 0.02552 0.49026 0.00700
C 	C 	0.10684 0.04871 0.47108 -0.01800
C 	C 	0.13939 0.08643 0.44349 -0.04800
H 	H 	0.28657 0.06355 0.50135 0.04600
H 	H 	0.24179 0.17356 0.40873 0.04800
H 	H 	0.12102 0.10712 0.42619 0.05100
H 	H 	0.00816 0.15695 0.99169 0.05200
C 	C 	0.34118 0.12409 0.00363 0.00400
C 	C 	0.27537 0.07137 0.00106 -0.05600
C 	C 	0.22971 0.08460 0.00457 0.02900
C 	C 	0.24951 0.14848 0.00832 0.00400
C 	C 	0.31290 0.19931 0.00409 -0.05700
S 	S 	0.18244 0.14532 0.99765 -0.00100
C 	C 	0.12678 0.06438 0.98879 -0.01500
C 	C 	0.16067 0.03724 0.99399 -0.05700
H 	H 	0.25983 0.02201 0.99490 0.04400
H 	H 	0.32473 0.24585 0.00023 0.04800
H 	H 	0.13661 0.98559 0.99043 0.05400
C 	C 	0.35940 0.18662 0.00287 0.02000
C 	C 	0.97054 0.03362 0.00674 0.11400
N 	N 	0.93104 0.96807 0.00298 -0.13200
C 	C 	0.95395 0.93366 0.99294 0.11500
C 	C 	0.93661 0.99972 0.45202 0.12000
C 	C 	0.93487 0.91671 0.47593 0.11700
N 	N 	0.90240 0.93994 0.46173 -0.13900
Cu	Cu	0.64466 0.24641 0.00184 0.92900
Cu	Cu	0.69714 0.24490 0.92033 0.86900
Cu	Cu	0.67979 0.34475 0.94895 0.89700
Cu	Cu	0.64213 0.36545 0.02438 0.89400
C 	C 	0.66321 0.29858 0.08255 0.28800
O 	O 	0.54805 0.20558 0.00041 -0.35700
C 	C 	0.65909 0.29586 0.86456 0.28700
O 	O 	0.69553 0.34632 0.00356 -0.64000
O 	O 	0.63583 0.25006 0.94581 -0.64400
O 	O 	0.68882 0.20346 0.00171 -0.37100
O 	O 	0.76108 0.26867 0.96480 -0.43500
O 	O 	0.63373 0.32459 0.07130 -0.38300
O 	O 	0.72804 0.43753 0.95577 -0.38200
C 	C 	0.72086 0.47342 0.98093 0.28500
C 	C 	0.52052 0.23125 0.98591 0.27800
O 	O 	0.55758 0.29103 0.97996 -0.39100
O 	O 	0.67722 0.44762 0.00411 -0.38900
O 	O 	0.66665 0.25956 0.05738 -0.36200
C 	C 	0.74615 0.23143 0.99092 0.27600
O 	O 	0.67911 0.34509 0.89266 -0.38700
O 	O 	0.65496 0.24479 0.87228 -0.42000
H 	H 	0.74259 0.37525 0.01625 0.16500
H 	H 	0.59015 0.22239 0.93079 0.17300
Cu	Cu	0.73636 0.33807 0.44963 0.92700
Cu	Cu	0.73380 0.28639 0.53168 0.87000
Cu	Cu	0.63260 0.30236 0.50037 0.89700
Cu	Cu	0.61577 0.34045 0.42431 0.89400
C 	C 	0.68612 0.31983 0.36833 0.28700
O 	O 	0.77827 0.43369 0.45104 -0.35900
C 	C 	0.67807 0.32142 0.58540 0.28700
O 	O 	0.63416 0.28771 0.44606 -0.64000
O 	O 	0.72938 0.34627 0.50526 -0.64100
O 	O 	0.78002 0.29411 0.45104 -0.37200
O 	O 	0.71161 0.22405 0.48764 -0.43800
O 	O 	0.65994 0.34944 0.37870 -0.38300
O 	O 	0.53785 0.25472 0.49171 -0.38100
C 	C 	0.50293 0.26041 0.46437 0.28800
C 	C 	0.75031 0.45998 0.46359 0.28200
O 	O 	0.68972 0.42263 0.46949 -0.38800
O 	O 	0.53151 0.30612 0.44320 -0.39000
O 	O 	0.72568 0.31725 0.39413 -0.36100
C 	C 	0.75230 0.23881 0.46332 0.28500
O 	O 	0.62934 0.30239 0.55650 -0.38600
O 	O 	0.73140 0.32767 0.57871 -0.42100
H 	H 	0.60523 0.24148 0.43315 0.16300
H 	H 	0.75676 0.39123 0.52027 0.17300
C 	C 	0.67295 0.36993 0.77470 -0.06200
C 	C 	0.64646 0.31620 0.74491 0.01800
C 	C 	0.61810 0.25469 0.75436 -0.06300
C 	C 	0.61917 0.24746 0.79333 0.01000
C 	C 	0.64930 0.30187 0.82336 -0.08700
C 	C 	0.67443 0.36289 0.81372 0.01000
C 	C 	0.65383 0.32518 0.70432 0.01900
H 	H 	0.59711 0.21279 0.73156 0.04300
H 	H 	0.59800 0.19982 0.80017 0.03100
H 	H 	0.69697 0.40523 0.83642 0.04000
H 	H 	0.69407 0.41747 0.76767 0.04500
C 	C 	0.59830 0.29005 0.67419 -0.06300
C 	C 	0.60594 0.29157 0.63527 0.01000
C 	C 	0.66930 0.32831 0.62614 -0.08800
C 	C 	0.72459 0.36660 0.65644 0.01100
C 	C 	0.71690 0.36480 0.69529 -0.06400
H 	H 	0.54934 0.26007 0.68088 0.04500
H 	H 	0.56276 0.26222 0.61226 0.03700
H 	H 	0.77366 0.39632 0.64987 0.03000
H 	H 	0.76009 0.39251 0.71835 0.04300
C 	C 	0.70955 0.35598 0.19159 -0.06200
C 	C 	0.68855 0.29841 0.20475 0.02000
C 	C 	0.66416 0.24213 0.17777 -0.06200
C 	C 	0.65863 0.24282 0.13781 0.01600
C 	C 	0.67696 0.29977 0.12452 -0.08200
C 	C 	0.70365 0.35664 0.15165 0.01200
C 	C 	0.68669 0.29578 0.24636 0.02000
H 	H 	0.64799 0.19751 0.18772 0.04700
H 	H 	0.63793 0.19857 0.11719 0.04000
H 	H 	0.71860 0.40101 0.14177 0.02400
H 	H 	0.72866 0.39972 0.21227 0.04700
C 	C 	0.74510 0.32412 0.27333 -0.06200
C 	C 	0.74442 0.32867 0.31332 0.01600
C 	C 	0.68534 0.30540 0.32658 -0.08300
C 	C 	0.62652 0.27457 0.29947 0.01200
C 	C 	0.62717 0.26962 0.25953 -0.06200
H 	H 	0.79123 0.34417 0.26337 0.04700
H 	H 	0.79017 0.35262 0.33395 0.03900
H 	H 	0.58059 0.25598 0.30938 0.02300
H 	H 	0.58179 0.24734 0.23886 0.04700
C 	C 	0.88733 0.74933 0.49195 0.00000
C 	C 	0.87894 0.69826 0.50826 -0.05400
C 	C 	0.82559 0.63491 0.49004 0.01400
C 	C 	0.77929 0.62444 0.45884 0.00600
C 	C 	0.78776 0.67601 0.44295 -0.06100
C 	C 	0.84157 0.73904 0.46093 0.02600
S 	S 	0.93277 0.82662 0.51360 0.00300
C 	C 	0.89794 0.85058 0.48404 -0.01800
C 	C 	0.84769 0.79598 0.45600 -0.04900
S 	S 	0.74088 0.54974 0.43395 0.00800
C 	C 	0.77972 0.52770 0.46131 -0.07200
C 	C 	0.82462 0.57976 0.49200 -0.02200
H 	H 	0.91450 0.70716 0.53263 0.04500
H 	H 	0.75338 0.66738 0.41791 0.04800
H 	H 	0.81919 0.79797 0.43197 0.04900
H 	H 	0.85609 0.57843 0.51434 0.03400
C 	C 	0.87900 0.10538 0.42500 0.00000
C 	C 	0.88745 0.16443 0.43089 -0.05500
C 	C 	0.83930 0.16567 0.44628 0.01200
C 	C 	0.78746 0.11076 0.45804 0.00100
C 	C 	0.77862 0.05166 0.45205 -0.06100
C 	C 	0.82677 0.05018 0.43674 0.02500
S 	S 	0.93974 0.09832 0.42420 0.00100
C 	C 	0.90158 0.02475 0.43609 -0.02100
C 	C 	0.83940 0.00463 0.44302 -0.05200
S 	S 	0.72846 0.11953 0.46174 0.00700
C 	C 	0.76639 0.19317 0.44982 -0.07600
C 	C 	0.82821 0.21287 0.44229 -0.02400
H 	H 	0.92900 0.20724 0.42292 0.04500
H 	H 	0.73745 0.00918 0.46052 0.04500
H 	H 	0.80906 0.96419 0.45727 0.05200
H 	H 	0.86388 0.25936 0.43477 0.04300
S 	S 	0.38164 0.22665 0.42978 0.01700
C 	C 	0.43155 0.22325 0.46242 -0.07300
C 	C 	0.39339 0.16548 0.47651 -0.02300
H 	H 	0.41335 0.15138 0.49835 0.04400
C 	C 	0.80928 0.74754 0.97580 -0.00200
C 	C 	0.76332 0.68823 0.98641 -0.06000
C 	C 	0.76202 0.63482 0.97225 0.01700
C 	C 	0.80741 0.64190 0.94928 -0.00000
C 	C 	0.85929 0.70305 0.94372 -0.05900
C 	C 	0.85919 0.75599 0.95661 0.02400
S 	S 	0.83697 0.81947 0.00102 0.01400
C 	C 	0.91107 0.86277 0.98849 -0.02300
C 	C 	0.91617 0.82118 0.96329 -0.04800
S 	S 	0.81154 0.58035 0.95100 0.02000
C 	C 	0.75648 0.54260 0.97971 -0.07400
C 	C 	0.73244 0.57823 0.98884 -0.02700
H 	H 	0.73285 0.68483 0.00703 0.04900
H 	H 	0.90053 0.70989 0.93223 0.04500
H 	H 	0.95989 0.83667 0.95143 0.04600
H 	H 	0.69613 0.56469 0.00721 0.04600
C 	C 	0.88455 0.20937 0.01418 0.00600
C 	C 	0.92694 0.19741 0.00016 -0.05900
C 	C 	0.91493 0.13784 0.00296 0.02500
C 	C 	0.85940 0.09028 0.01668 -0.00100
C 	C 	0.81741 0.10221 0.03115 -0.05500
C 	C 	0.82895 0.16165 0.02822 0.01300
S 	S 	0.86945 0.25857 0.99799 -0.00200
C 	C 	0.79526 0.22462 0.00996 -0.06700
C 	C 	0.77869 0.17037 0.02597 -0.02400
S 	S 	0.87087 0.03680 0.02920 0.00500
C 	C 	0.94506 0.07051 0.01701 -0.01700
C 	C 	0.96292 0.12632 0.00243 -0.05300
H 	H 	0.96840 0.23362 0.98824 0.04100
H 	H 	0.77546 0.06547 0.04251 0.04600
H 	H 	0.72922 0.13343 0.02993 0.04600
S 	S 	0.39839 0.11977 0.98825 0.01600
C 	C 	0.44893 0.19628 0.98127 -0.07400
C 	C 	0.42024 0.22754 0.99061 -0.02900
H 	H 	0.44344 0.27826 0.99003 0.03800
