data_crystal

_cell_length_a 40.70325
_cell_length_b 38.08950
_cell_length_c 22.71928
_cell_angle_alpha 89.96343
_cell_angle_beta  89.94929
_cell_angle_gamma 89.99872

_symmetry_space_group_name_	'P 1'
_symmetry_space_group_name_H-M	'P 1'

loop_
_symmetry_equiv_pos_as_xyz
  x,y,z

loop_
_atom_site_label
_atom_site_type_symbol
_atom_site_fract_x
_atom_site_fract_y
_atom_site_fract_z
_atom_site_charge
C 	C 	0.54186 0.46500 0.05504 0.11000
N 	N 	0.51126 0.46495 0.03273 -0.17000
C 	C 	0.49508 0.43858 0.05962 0.11400
C 	C 	0.46264 0.42542 0.03941 -0.06700
C 	C 	0.43803 0.45039 0.01560 0.09600
C 	C 	0.45587 0.38728 0.03846 0.05600
C 	C 	0.45479 0.36926 0.98468 -0.04100
C 	C 	0.44745 0.33343 0.98352 0.00400
C 	C 	0.44239 0.31505 0.03631 0.02700
C 	C 	0.44912 0.36930 0.09100 -0.04500
N 	N 	0.44273 0.48537 0.01494 -0.12400
C 	C 	0.40583 0.44201 0.00214 -0.05000
C 	C 	0.41369 0.49941 0.99921 0.09300
C 	C 	0.40648 0.53752 0.00462 -0.06500
C 	C 	0.37204 0.54977 0.00335 0.05500
C 	C 	0.32252 0.56677 0.05546 0.00100
C 	C 	0.35486 0.55099 0.94992 -0.04200
C 	C 	0.32141 0.55930 0.94940 0.00300
C 	C 	0.30518 0.56751 0.00213 0.02900
N 	N 	0.46477 0.55790 0.99858 -0.17400
C 	C 	0.48047 0.58856 0.00736 0.11500
C 	C 	0.45927 0.61344 0.03045 -0.05000
C 	C 	0.42912 0.59705 0.03610 -0.05000
C 	C 	0.51375 0.59601 0.98398 -0.06900
C 	C 	0.52375 0.63249 0.97110 0.05200
C 	C 	0.55592 0.68403 0.99577 -0.00000
C 	C 	0.54246 0.70196 0.94757 0.02600
C 	C 	0.52027 0.68473 0.91021 0.00600
C 	C 	0.51073 0.65017 0.92223 -0.04100
N 	N 	0.53896 0.54095 0.02161 -0.12100
C 	C 	0.57887 0.53336 0.95379 -0.05300
C 	C 	0.56371 0.52004 0.00354 0.10100
C 	C 	0.56936 0.48444 0.02740 -0.06700
C 	C 	0.60306 0.46996 0.02848 0.05700
C 	C 	0.62870 0.48947 0.05361 -0.04100
C 	C 	0.66090 0.47696 0.05125 0.00700
C 	C 	0.66775 0.44484 0.02378 0.01900
C 	C 	0.64199 0.42454 0.00099 0.01300
C 	C 	0.60979 0.43729 0.00254 -0.04000
C 	C 	0.54544 0.43849 0.09634 -0.05000
C 	C 	0.51546 0.42149 0.09921 -0.05300
C 	C 	0.44285 0.33322 0.09003 0.00000
C 	C 	0.39015 0.47348 0.99167 -0.05200
C 	C 	0.43349 0.56294 0.01623 0.11200
C 	C 	0.56288 0.56429 0.94093 -0.04800
C 	C 	0.53878 0.56798 0.98333 0.09300
C 	C 	0.54650 0.64948 0.00764 -0.03300
H 	H 	0.50519 0.47498 0.99130 0.10400
H 	H 	0.47215 0.53908 0.96782 0.10500
H 	H 	0.68062 0.49245 0.06997 0.07100
H 	H 	0.64704 0.39934 0.98083 0.08500
H 	H 	0.62368 0.51449 0.07442 0.06900
H 	H 	0.59014 0.42199 0.98316 0.07200
H 	H 	0.44581 0.31992 0.94168 0.08400
H 	H 	0.44897 0.38323 0.13256 0.06600
H 	H 	0.43833 0.31939 0.13092 0.07300
H 	H 	0.45929 0.38312 0.94380 0.06900
H 	H 	0.30801 0.55890 0.90823 0.08500
H 	H 	0.36720 0.54455 0.90906 0.06900
C 	C 	0.35575 0.55766 0.05611 -0.04400
H 	H 	0.31006 0.57264 0.09645 0.07600
H 	H 	0.57348 0.69698 0.02426 0.08200
H 	H 	0.55675 0.63595 0.04536 0.07000
H 	H 	0.49331 0.63715 0.89360 0.06900
H 	H 	0.51016 0.69824 0.87236 0.07900
H 	H 	0.56859 0.42712 0.10993 0.07000
H 	H 	0.51211 0.39491 0.11487 0.07800
H 	H 	0.39354 0.41797 0.01491 0.06700
H 	H 	0.36389 0.47738 0.99520 0.06500
H 	H 	0.46279 0.64158 0.02810 0.09200
H 	H 	0.40584 0.61070 0.03827 0.08500
H 	H 	0.59291 0.51805 0.92249 0.08500
H 	H 	0.56276 0.57696 0.89827 0.06900
H 	H 	0.36876 0.55636 0.09763 0.06800
Zn	Zn	0.38553 0.11118 0.96191 1.22500
C 	C 	0.32642 0.07082 0.94599 0.33100
O 	O 	0.38264 0.08622 0.03762 -0.41400
O 	O 	0.34342 0.04320 0.96247 -0.38800
O 	O 	0.41362 0.04040 0.00553 -0.48800
C 	C 	0.40270 0.08704 0.84517 0.31800
O 	O 	0.41055 0.10844 0.88830 -0.45000
O 	O 	0.38569 0.05860 0.85647 -0.43800
C 	C 	0.40179 0.05934 0.04885 0.32600
O 	O 	0.42960 0.14435 0.00059 -0.29800
Zn	Zn	0.39029 0.03482 0.93135 1.18700
O 	O 	0.34155 0.10007 0.93144 -0.39000
C 	C 	0.40843 0.16979 0.00360 0.29000
O 	O 	0.37937 0.16253 0.98398 -0.30400
C 	C 	0.53139 0.01192 0.50868 0.01900
C 	C 	0.50405 0.03482 0.50255 0.01800
C 	C 	0.53560 0.98389 0.46915 -0.04900
C 	C 	0.51284 0.97845 0.42356 0.02200
C 	C 	0.48131 0.02943 0.45686 -0.04800
C 	C 	0.48547 0.00134 0.41744 0.01300
H 	H 	0.46051 0.04693 0.45211 0.06200
H 	H 	0.55644 0.96643 0.47385 0.06300
C 	C 	0.46235 0.99469 0.37251 -0.00700
C 	C 	0.46693 0.96748 0.33168 0.01400
C 	C 	0.44925 0.97286 0.27829 -0.04000
C 	C 	0.43186 0.00459 0.27700 -0.00600
S 	S 	0.43894 0.02520 0.34050 0.03100
H 	H 	0.45180 0.95632 0.23990 0.05500
C 	C 	0.51635 0.95012 0.38394 -0.01400
C 	C 	0.49446 0.94538 0.33681 0.01800
C 	C 	0.50870 0.92682 0.28857 -0.04400
C 	C 	0.54170 0.91791 0.29749 -0.00200
S 	S 	0.55238 0.93308 0.36371 0.03300
H 	H 	0.49708 0.92443 0.24599 0.05500
C 	C 	0.54969 0.04540 0.59500 0.01600
C 	C 	0.55437 0.01836 0.55391 -0.01500
S 	S 	0.57751 0.98762 0.58594 0.03900
C 	C 	0.58432 0.00786 0.64984 -0.00900
C 	C 	0.56709 0.03971 0.64859 -0.04200
C 	C 	0.50042 0.06301 0.54245 -0.01100
C 	C 	0.52218 0.06754 0.58985 0.01500
C 	C 	0.50777 0.08582 0.63824 -0.04400
C 	C 	0.47477 0.09467 0.62924 -0.00300
S 	S 	0.46432 0.07990 0.56262 0.02900
H 	H 	0.51930 0.08804 0.68093 0.05100
H 	H 	0.56448 0.05614 0.68710 0.05200
Zn	Zn	0.62606 0.89700 0.96209 1.22600
C 	C 	0.68860 0.93180 0.97834 0.33000
O 	O 	0.60264 0.90192 0.03780 -0.44400
O 	O 	0.67349 0.96088 0.96284 -0.41900
O 	O 	0.63154 0.94946 0.06828 -0.44200
C 	C 	0.61265 0.94994 0.87663 0.32700
O 	O 	0.62999 0.92159 0.88702 -0.42100
O 	O 	0.60241 0.96944 0.92052 -0.49500
C 	C 	0.61291 0.92237 0.08054 0.33200
O 	O 	0.57874 0.86987 0.92274 -0.29400
Zn	Zn	0.62724 0.97319 0.99337 1.18000
O 	O 	0.67167 0.90305 0.98888 -0.36000
C 	C 	0.59536 0.84090 0.92700 0.29700
O 	O 	0.62471 0.84420 0.94820 -0.30600
Zn	Zn	0.10346 0.60232 0.02301 1.22800
C 	C 	0.05478 0.65647 0.04011 0.33600
O 	O 	0.09812 0.56834 0.08771 -0.41000
O 	O 	0.03350 0.63606 0.01335 -0.39900
O 	O 	0.04590 0.58463 0.10965 -0.43900
C 	C 	0.06713 0.58652 0.91936 0.33000
O 	O 	0.08747 0.60919 0.94297 -0.43600
O 	O 	0.04919 0.56619 0.95314 -0.49400
C 	C 	0.07380 0.57034 0.12556 0.31400
O 	O 	0.14473 0.56614 0.98189 -0.25100
Zn	Zn	0.03214 0.58266 0.02817 1.18400
O 	O 	0.08288 0.64372 0.05896 -0.39300
C 	C 	0.16501 0.58935 0.00253 0.28600
O 	O 	0.15168 0.61579 0.02910 -0.33300
C 	C 	0.98794 0.45876 0.47891 0.02000
C 	C 	0.01690 0.47960 0.47789 0.01800
C 	C 	0.96392 0.46469 0.52233 -0.05000
C 	C 	0.96762 0.49241 0.56257 0.01900
C 	C 	0.02127 0.50626 0.51997 -0.05100
C 	C 	0.99640 0.51350 0.56108 0.01900
H 	H 	0.04352 0.52185 0.51973 0.06200
H 	H 	0.94211 0.44842 0.52385 0.06300
C 	C 	0.99864 0.54265 0.59920 -0.01200
C 	C 	0.97409 0.54992 0.64083 0.01400
C 	C 	0.98572 0.57022 0.68921 -0.04200
C 	C 	0.01935 0.57783 0.68604 -0.00600
S 	S 	0.03374 0.55928 0.62469 0.03000
H 	H 	0.97147 0.57508 0.72855 0.05100
C 	C 	0.94237 0.50104 0.60262 -0.01300
C 	C 	0.94577 0.52881 0.64275 0.01500
C 	C 	0.92528 0.52509 0.69329 -0.04400
C 	C 	0.90659 0.49425 0.69287 -0.00500
S 	S 	0.91619 0.47219 0.63183 0.03200
H 	H 	0.92704 0.54166 0.73177 0.05100
C 	C 	0.00543 0.42986 0.38754 0.01400
C 	C 	0.98346 0.43300 0.43495 -0.01100
S 	S 	0.94692 0.41893 0.41166 0.03300
C 	C 	0.95736 0.40691 0.34356 -0.00200
C 	C 	0.99076 0.41465 0.33652 -0.04100
C 	C 	0.04028 0.47398 0.43289 -0.01200
C 	C 	0.03393 0.45078 0.38621 0.01800
C 	C 	0.05113 0.45977 0.33351 -0.04400
C 	C 	0.07017 0.49022 0.33872 0.00100
S 	S 	0.06546 0.50497 0.40730 0.03100
H 	H 	0.04639 0.44762 0.29139 0.05600
H 	H 	0.00272 0.41353 0.29406 0.05500
Zn	Zn	0.87121 0.39378 0.01775 1.22900
C 	C 	0.80591 0.42194 0.03217 0.34000
O 	O 	0.89026 0.41801 0.94906 -0.45300
O 	O 	0.81931 0.44686 0.06408 -0.39900
O 	O 	0.85616 0.46514 0.95525 -0.48200
C 	C 	0.88550 0.42411 0.12942 0.32600
O 	O 	0.86903 0.39912 0.10293 -0.38500
O 	O 	0.89109 0.45389 0.10215 -0.49300
C 	C 	0.87538 0.44473 0.92398 0.31900
O 	O 	0.92151 0.36427 0.03395 -0.29700
Zn	Zn	0.86268 0.47052 0.03931 1.17800
O 	O 	0.82442 0.40089 0.00054 -0.38300
C 	C 	0.90615 0.33683 0.01431 0.28400
O 	O 	0.87610 0.34200 0.99791 -0.29700
C 	C 	0.99262 0.93566 0.08571 0.10900
N 	N 	0.98197 0.96210 0.05133 -0.17300
C 	C 	0.94951 0.96531 0.06137 0.10500
C 	C 	0.92738 0.98445 0.02078 -0.06500
C 	C 	0.93884 0.01712 0.99299 0.09600
C 	C 	0.89302 0.97299 0.01188 0.06000
C 	C 	0.88619 0.93901 0.99129 -0.04500
C 	C 	0.85365 0.92833 0.98280 0.00900
C 	C 	0.82780 0.95193 0.99297 0.02000
C 	C 	0.86708 0.99635 0.02293 -0.03900
N 	N 	0.95018 0.04429 0.02502 -0.11900
C 	C 	0.95088 0.01840 0.93611 -0.04900
C 	C 	0.96853 0.06356 0.98777 0.09400
C 	C 	0.99222 0.08990 0.00867 -0.06400
C 	C 	0.98186 0.12708 0.01086 0.06100
C 	C 	0.96848 0.17928 0.06723 0.00300
C 	C 	0.97320 0.14466 0.95885 -0.03900
C 	C 	0.96195 0.17932 0.96108 0.00600
C 	C 	0.96019 0.19699 0.01516 0.02900
N 	N 	0.03537 0.04559 0.03276 -0.17200
C 	C 	0.06715 0.04712 0.04914 0.11300
C 	C 	0.07565 0.08125 0.06387 -0.04900
C 	C 	0.04781 0.10136 0.05572 -0.04900
C 	C 	0.09133 0.01965 0.03289 -0.07100
C 	C 	0.12508 0.02961 0.01544 0.05900
C 	C 	0.18372 0.02938 0.03451 0.01000
C 	C 	0.18899 0.04994 0.98415 0.02100
C 	C 	0.16228 0.05956 0.94862 0.00800
C 	C 	0.13041 0.04950 0.96431 -0.04700
N 	N 	0.05751 0.97089 0.07317 -0.12200
C 	C 	0.07624 0.92641 0.01707 -0.04700
C 	C 	0.05380 0.93667 0.05949 0.10000
C 	C 	0.02367 0.91672 0.07374 -0.06900
C 	C 	0.02453 0.87789 0.07377 0.05500
C 	C 	0.04748 0.86006 0.10883 -0.04000
C 	C 	0.05096 0.82369 0.10395 0.00600
C 	C 	0.03169 0.80492 0.06368 0.02200
C 	C 	0.00750 0.82243 0.03096 0.00600
C 	C 	0.00416 0.85886 0.03549 -0.04300
C 	C 	0.96685 0.92194 0.11838 -0.05400
C 	C 	0.93926 0.94096 0.10285 -0.05200
C 	C 	0.83463 0.98585 0.01356 0.01000
C 	C 	0.96997 0.04822 0.93280 -0.05300
C 	C 	0.02349 0.07856 0.03674 0.10500
C 	C 	0.09498 0.95559 0.00477 -0.04600
C 	C 	0.08297 0.98213 0.04022 0.09800
C 	C 	0.15188 0.01948 0.05033 -0.04100
H 	H 	0.99364 0.97012 0.01259 0.09800
H 	H 	0.02556 0.02602 0.00582 0.09800
H 	H 	0.06919 0.81022 0.13033 0.07700
H 	H 	0.99196 0.80795 0.00084 0.07800
H 	H 	0.06305 0.87449 0.13897 0.07100
H 	H 	0.98630 0.87237 0.00838 0.06500
H 	H 	0.84854 0.90189 0.96786 0.08100
H 	H 	0.87207 0.02257 0.03907 0.07100
H 	H 	0.81476 0.00403 0.02238 0.07300
H 	H 	0.90606 0.92086 0.98220 0.06500
H 	H 	0.95452 0.19240 0.92089 0.08700
H 	H 	0.97489 0.13138 0.91680 0.07100
C 	C 	0.97887 0.14435 0.06518 -0.04200
H 	H 	0.96656 0.19251 0.10930 0.07400
H 	H 	0.20430 0.02125 0.06149 0.08000
H 	H 	0.14799 0.00406 0.08982 0.07300
H 	H 	0.10987 0.05724 0.93691 0.06700
H 	H 	0.16622 0.07496 0.90914 0.07800
H 	H 	0.96628 0.89580 0.13707 0.06600
H 	H 	0.91426 0.93187 0.10844 0.06500
H 	H 	0.95404 0.99565 0.90810 0.07000
H 	H 	0.98985 0.05191 0.90171 0.06300
H 	H 	0.10043 0.09158 0.06371 0.09100
H 	H 	0.04818 0.12933 0.04726 0.08700
H 	H 	0.07283 0.90460 0.98714 0.08700
H 	H 	0.10836 0.95964 0.96412 0.06900
H 	H 	0.98452 0.13067 0.10575 0.07000
C 	C 	0.91601 0.23908 0.04098 0.00700
C 	C 	0.94749 0.23330 0.01789 0.08600
C 	C 	0.96660 0.26214 0.99835 -0.13300
C 	C 	0.95215 0.29565 0.99591 0.06800
C 	C 	0.92050 0.30135 0.01844 0.00200
C 	C 	0.90320 0.27323 0.04527 -0.07400
C 	C 	0.87110 0.27926 0.07794 0.77700
H 	H 	0.90165 0.21689 0.05623 0.09300
H 	H 	0.96543 0.31737 0.97627 0.08200
C 	C 	0.00192 0.25720 0.97828 0.78800
F 	F 	0.86408 0.25151 0.11530 -0.42000
F 	F 	0.84570 0.28242 0.03793 -0.40300
F 	F 	0.87280 0.30933 0.11196 -0.42600
F 	F 	0.00234 0.24206 0.92301 -0.43900
F 	F 	0.01881 0.23589 0.01723 -0.43400
F 	F 	0.01839 0.28896 0.97537 -0.42800
C 	C 	0.91919 0.45587 0.77857 -0.06300
C 	C 	0.89660 0.47666 0.74753 0.04400
C 	C 	0.86592 0.48416 0.77248 -0.06000
C 	C 	0.85837 0.47230 0.82912 0.03000
C 	C 	0.88161 0.45305 0.86153 -0.08900
C 	C 	0.91171 0.44404 0.83529 0.02600
H 	H 	0.94302 0.45004 0.75964 0.06200
H 	H 	0.84830 0.50008 0.74869 0.07400
H 	H 	0.83475 0.47876 0.84829 0.06200
H 	H 	0.92980 0.42905 0.85958 0.04900
C 	C 	0.93063 0.38110 0.25525 -0.05000
C 	C 	0.93428 0.40947 0.29400 0.04600
C 	C 	0.91926 0.44172 0.28088 -0.05900
C 	C 	0.90194 0.44597 0.22833 0.03100
C 	C 	0.89953 0.41807 0.18826 -0.06900
C 	C 	0.91318 0.38531 0.20268 0.03400
H 	H 	0.94223 0.35615 0.26490 0.07800
H 	H 	0.92215 0.46389 0.31028 0.06100
H 	H 	0.89112 0.47123 0.21804 0.04300
H 	H 	0.91147 0.36356 0.17212 0.08800
C 	C 	0.02138 0.74344 0.09451 0.00000
C 	C 	0.03692 0.76685 0.05584 0.08800
C 	C 	0.05825 0.75394 0.01154 -0.13500
C 	C 	0.06327 0.71753 0.00665 0.08100
C 	C 	0.04807 0.69420 0.04580 -0.02000
C 	C 	0.02718 0.70710 0.09064 -0.06700
C 	C 	0.01119 0.68216 0.13431 0.77000
H 	H 	0.00505 0.75371 0.12801 0.09200
H 	H 	0.07912 0.70717 0.97248 0.07500
C 	C 	0.07541 0.77890 0.96927 0.78900
F 	F 	0.99348 0.69995 0.17697 -0.43500
F 	F 	0.03505 0.66244 0.16236 -0.44100
F 	F 	0.98995 0.65991 0.10497 -0.45900
F 	F 	0.09395 0.80297 0.00041 -0.43700
F 	F 	0.05229 0.79657 0.93595 -0.44400
F 	F 	0.09624 0.76132 0.93116 -0.42700
C 	C 	0.05496 0.61598 0.82419 0.03200
C 	C 	0.06277 0.58526 0.85530 -0.08900
C 	C 	0.06141 0.55270 0.82663 0.03100
C 	C 	0.04984 0.55056 0.76890 -0.06400
C 	C 	0.03936 0.58097 0.73949 0.04500
C 	C 	0.04308 0.61381 0.76654 -0.06100
H 	H 	0.05617 0.64130 0.84581 0.05600
H 	H 	0.06787 0.52888 0.85000 0.05000
H 	H 	0.04717 0.52507 0.74829 0.06200
H 	H 	0.03521 0.63745 0.74405 0.07200
C 	C 	0.09746 0.52395 0.19078 0.02100
C 	C 	0.07645 0.55290 0.18334 -0.06200
C 	C 	0.05605 0.56340 0.22997 0.01900
C 	C 	0.05521 0.54396 0.28208 -0.05100
C 	C 	0.07509 0.51405 0.28846 0.03900
C 	C 	0.09670 0.50459 0.24309 -0.04700
H 	H 	0.11343 0.51561 0.15529 0.09600
H 	H 	0.04017 0.58606 0.22525 0.08400
H 	H 	0.03815 0.55135 0.31654 0.06400
H 	H 	0.11211 0.48154 0.24755 0.07800
C 	C 	0.77631 0.92755 0.03440 0.00200
C 	C 	0.79335 0.94060 0.98545 0.08900
C 	C 	0.77654 0.94632 0.93181 -0.13600
C 	C 	0.74229 0.94162 0.92984 0.08000
C 	C 	0.72482 0.93103 0.98005 -0.01700
C 	C 	0.74198 0.92325 0.03281 -0.06500
C 	C 	0.72381 0.91087 0.08752 0.77300
H 	H 	0.78977 0.92217 0.07453 0.09300
H 	H 	0.72892 0.94718 0.88967 0.08100
C 	C 	0.79489 0.95874 0.87739 0.79200
F 	F 	0.74458 0.90778 0.13548 -0.43000
F 	F 	0.70992 0.87834 0.07712 -0.41800
F 	F 	0.69941 0.93457 0.10219 -0.44400
F 	F 	0.82090 0.93646 0.86567 -0.43600
F 	F 	0.80677 0.99231 0.88656 -0.43900
F 	F 	0.77484 0.95933 0.82820 -0.42900
C 	C 	0.62173 0.97499 0.71684 -0.05700
C 	C 	0.59037 0.98846 0.70485 0.05000
C 	C 	0.56543 0.98547 0.74731 -0.06400
C 	C 	0.57241 0.97143 0.80269 0.03200
C 	C 	0.60425 0.95978 0.81591 -0.08300
C 	C 	0.62865 0.96061 0.77220 0.03700
H 	H 	0.64101 0.97673 0.68407 0.07700
H 	H 	0.54086 0.99486 0.73789 0.05700
H 	H 	0.55323 0.97026 0.83575 0.04000
H 	H 	0.65327 0.95145 0.78183 0.06600
C 	C 	0.56250 0.88777 0.20785 -0.05700
C 	C 	0.56504 0.91557 0.24803 0.04600
C 	C 	0.58648 0.94356 0.23598 -0.05900
C 	C 	0.60374 0.94469 0.18282 0.03100
C 	C 	0.59938 0.91810 0.14065 -0.07600
C 	C 	0.57965 0.88892 0.15451 0.03400
H 	H 	0.54622 0.86591 0.21694 0.07700
H 	H 	0.58859 0.96529 0.26648 0.06300
H 	H 	0.61941 0.96700 0.17352 0.05700
H 	H 	0.57675 0.86767 0.12328 0.06600
C 	C 	0.23913 0.03977 0.92452 0.00500
C 	C 	0.22274 0.05988 0.96704 0.08900
C 	C 	0.23948 0.08751 0.99598 -0.13200
C 	C 	0.27353 0.09127 0.98746 0.07700
C 	C 	0.29030 0.06971 0.94751 -0.01100
C 	C 	0.27257 0.04555 0.91247 -0.06800
C 	C 	0.28942 0.02489 0.86396 0.77000
H 	H 	0.22597 0.01905 0.90190 0.09300
H 	H 	0.28723 0.11018 0.01328 0.09700
C 	C 	0.22156 0.11171 0.03828 0.79200
F 	F 	0.26677 0.01102 0.82493 -0.42700
F 	F 	0.30715 0.99758 0.88839 -0.45000
F 	F 	0.31043 0.04634 0.83226 -0.43900
F 	F 	0.21540 0.09414 0.09039 -0.43500
F 	F 	0.19212 0.12271 0.01412 -0.43000
F 	F 	0.23998 0.14135 0.05073 -0.40600
C 	C 	0.41134 0.06741 0.74119 0.02400
C 	C 	0.41667 0.09246 0.78561 -0.07800
C 	C 	0.43757 0.12110 0.77428 0.02600
C 	C 	0.45481 0.12311 0.72109 -0.05900
C 	C 	0.45131 0.09665 0.67863 0.04300
C 	C 	0.42875 0.06933 0.68827 -0.05800
H 	H 	0.39466 0.04567 0.74845 0.06600
H 	H 	0.44131 0.14119 0.80731 0.05800
H 	H 	0.47192 0.14448 0.71388 0.06800
H 	H 	0.42583 0.04864 0.65602 0.06400
C 	C 	0.39338 0.03544 0.20929 -0.05600
C 	C 	0.42524 0.02359 0.22183 0.04600
C 	C 	0.45014 0.02742 0.17950 -0.06300
C 	C 	0.44273 0.04062 0.12373 0.03000
C 	C 	0.41045 0.05055 0.10994 -0.08200
C 	C 	0.38600 0.04896 0.15351 0.03600
H 	H 	0.37410 0.03303 0.24195 0.07400
H 	H 	0.47504 0.01921 0.18930 0.05500
H 	H 	0.46193 0.04242 0.09080 0.03900
H 	H 	0.36104 0.05683 0.14348 0.06600
C 	C 	0.40386 0.26521 0.05066 0.00700
C 	C 	0.43537 0.27695 0.03528 0.08600
C 	C 	0.45959 0.25232 0.01790 -0.13600
C 	C 	0.45013 0.21746 0.00677 0.07400
C 	C 	0.41822 0.20589 0.02023 -0.00100
C 	C 	0.39587 0.22935 0.04769 -0.07100
C 	C 	0.36364 0.21661 0.07381 0.77700
H 	H 	0.38561 0.28404 0.06524 0.09200
H 	H 	0.46748 0.19939 0.98696 0.08000
C 	C 	0.49517 0.26315 0.00919 0.79200
F 	F 	0.35218 0.23981 0.11600 -0.41900
F 	F 	0.36759 0.18430 0.10080 -0.42400
F 	F 	0.34030 0.21394 0.02987 -0.40800
F 	F 	0.50494 0.28639 0.05257 -0.44000
F 	F 	0.49883 0.27882 0.95470 -0.44600
F 	F 	0.51584 0.23432 0.01190 -0.43100
C 	C 	0.22156 0.61022 0.98271 0.06800
C 	C 	0.20081 0.58355 0.00350 0.00700
C 	C 	0.21453 0.55230 0.02691 -0.07400
C 	C 	0.24860 0.54690 0.02263 0.00700
C 	C 	0.26936 0.57367 0.00240 0.08500
C 	C 	0.25591 0.60625 0.98443 -0.13000
C 	C 	0.27798 0.63640 0.96555 0.78900
H 	H 	0.21084 0.63411 0.96532 0.09100
H 	H 	0.25917 0.52203 0.03602 0.09000
C 	C 	0.19314 0.52459 0.05612 0.77500
F 	F 	0.26059 0.66749 0.96037 -0.41800
F 	F 	0.29200 0.62882 0.91159 -0.43600
F 	F 	0.30258 0.64167 0.00660 -0.43100
F 	F 	0.17656 0.50571 0.01350 -0.42800
F 	F 	0.17070 0.54008 0.09380 -0.44300
F 	F 	0.21179 0.50138 0.08904 -0.43200
C 	C 	0.75635 0.43761 0.97548 0.07800
C 	C 	0.77012 0.42117 0.02476 -0.01900
C 	C 	0.74953 0.40713 0.06902 -0.06000
C 	C 	0.71557 0.41372 0.06656 0.00100
C 	C 	0.70201 0.43249 0.01934 0.09400
C 	C 	0.72224 0.44293 0.97170 -0.14000
C 	C 	0.70774 0.46132 0.91836 0.79200
H 	H 	0.77243 0.44757 0.94127 0.07100
H 	H 	0.69978 0.40552 0.10246 0.09600
C 	C 	0.76392 0.38688 0.12044 0.77100
F 	F 	0.73075 0.46552 0.87399 -0.43600
F 	F 	0.69635 0.49415 0.93439 -0.44700
F 	F 	0.68200 0.44182 0.89585 -0.43800
F 	F 	0.77985 0.40985 0.15789 -0.42600
F 	F 	0.78613 0.36211 0.10034 -0.40000
F 	F 	0.73979 0.36942 0.15195 -0.41600
C 	C 	0.55138 0.80062 0.96053 0.07300
C 	C 	0.57893 0.80646 0.92472 -0.00100
C 	C 	0.59162 0.77877 0.88994 -0.07000
C 	C 	0.57894 0.74470 0.89734 0.00600
C 	C 	0.55241 0.73854 0.93536 0.08800
C 	C 	0.53731 0.76700 0.96495 -0.13700
C 	C 	0.50733 0.76126 0.00363 0.79400
H 	H 	0.54162 0.82210 0.98647 0.07800
H 	H 	0.59017 0.72275 0.87462 0.09300
C 	C 	0.61954 0.78509 0.84686 0.77400
F 	F 	0.49322 0.79276 0.02055 -0.43400
F 	F 	0.51631 0.74306 0.05377 -0.44200
F 	F 	0.48379 0.74225 0.97349 -0.43900
F 	F 	0.64880 0.78781 0.87734 -0.41500
F 	F 	0.61424 0.81569 0.81537 -0.42700
F 	F 	0.62223 0.75785 0.80681 -0.42400
