data_crystal

_cell_length_a 33.61432
_cell_length_b 34.00575
_cell_length_c 32.97317
_cell_angle_alpha 95.55319
_cell_angle_beta  95.55367
_cell_angle_gamma 125.41557

_symmetry_space_group_name_	'P 1'
_symmetry_space_group_name_H-M	'P 1'

loop_
_symmetry_equiv_pos_as_xyz
  x,y,z

loop_
_atom_site_label
_atom_site_type_symbol
_atom_site_fract_x
_atom_site_fract_y
_atom_site_fract_z
_atom_site_charge
C 	C 	0.01051 0.03517 0.99317 0.10900
N 	N 	0.05879 0.06200 0.98841 -0.14200
C 	C 	0.08089 0.03954 0.98128 0.11600
N 	N 	0.05483 0.99033 0.97939 -0.14200
C 	C 	0.00677 0.96343 0.98430 0.11300
N 	N 	0.98455 0.98582 0.99095 -0.13900
C 	C 	0.91301 0.98500 0.43902 0.11700
N 	N 	0.96263 0.01226 0.43915 -0.14100
C 	C 	0.98703 0.99158 0.44233 0.12000
N 	N 	0.96167 0.94350 0.44530 -0.14100
C 	C 	0.91209 0.91603 0.44515 0.11800
N 	N 	0.88778 0.93686 0.44217 -0.14100
Cu	Cu	0.68804 0.27787 0.00887 0.92700
Cu	Cu	0.72092 0.26506 0.92025 0.87000
Cu	Cu	0.71845 0.34988 0.94874 0.89700
Cu	Cu	0.69159 0.37243 0.02766 0.89300
C 	C 	0.70693 0.32538 0.09262 0.25800
O 	O 	0.61608 0.25188 0.00769 -0.36100
C 	C 	0.69614 0.30583 0.86029 0.26100
O 	O 	0.72965 0.35345 0.00742 -0.63900
O 	O 	0.68064 0.27766 0.94845 -0.64100
O 	O 	0.71677 0.24037 0.01080 -0.37300
O 	O 	0.76904 0.28194 0.96704 -0.44100
O 	O 	0.68359 0.34346 0.07873 -0.37900
O 	O 	0.75796 0.42057 0.95347 -0.38300
C 	C 	0.75530 0.45030 0.98011 0.28700
C 	C 	0.59733 0.27194 0.98933 0.28000
O 	O 	0.62731 0.31610 0.98110 -0.39300
O 	O 	0.72086 0.43316 0.00347 -0.39400
O 	O 	0.70561 0.29112 0.06841 -0.35200
C 	C 	0.75675 0.25428 0.99537 0.28300
O 	O 	0.71954 0.34638 0.88874 -0.38500
O 	O 	0.68897 0.26550 0.86927 -0.41000
H 	H 	0.76516 0.37442 0.02094 0.16200
H 	H 	0.64586 0.25837 0.93337 0.17000
Cu	Cu	0.68791 0.32292 0.44096 0.92700
Cu	Cu	0.68756 0.27975 0.52651 0.87000
Cu	Cu	0.60911 0.29163 0.49510 0.89700
Cu	Cu	0.59851 0.32837 0.41868 0.89300
C 	C 	0.65271 0.31856 0.35631 0.25900
O 	O 	0.71977 0.39587 0.44649 -0.36400
C 	C 	0.64477 0.30530 0.58417 0.26000
O 	O 	0.61098 0.28527 0.43720 -0.64100
O 	O 	0.68237 0.32537 0.50027 -0.64000
O 	O 	0.72190 0.29043 0.43926 -0.37300
O 	O 	0.67225 0.23516 0.47788 -0.44100
O 	O 	0.63407 0.34103 0.37085 -0.37800
O 	O 	0.53766 0.25613 0.48571 -0.38200
C 	C 	0.51191 0.26396 0.45920 0.28800
C 	C 	0.70002 0.41555 0.46392 0.28100
O 	O 	0.65390 0.38694 0.46941 -0.39300
O 	O 	0.53408 0.30013 0.43812 -0.39600
O 	O 	0.67959 0.31075 0.38150 -0.35400
C 	C 	0.70341 0.24860 0.45208 0.28700
O 	O 	0.60611 0.28538 0.55378 -0.38300
O 	O 	0.68466 0.30861 0.57788 -0.41100
H 	H 	0.58882 0.25108 0.42147 0.16300
H 	H 	0.70260 0.35884 0.51736 0.17000
C 	C 	0.65640 0.28306 0.75095 0.07200
C 	C 	0.61769 0.26434 0.71706 -0.08400
C 	C 	0.62437 0.29469 0.68836 0.00900
C 	C 	0.66857 0.34158 0.69282 0.07500
C 	C 	0.70670 0.36077 0.72738 -0.08500
C 	C 	0.70012 0.33032 0.75580 0.01000
N 	N 	0.64875 0.26940 0.78808 -0.15200
C 	C 	0.68626 0.30833 0.81663 -0.00200
C 	C 	0.71947 0.34653 0.79786 -0.04900
N 	N 	0.67748 0.35370 0.65537 -0.15200
C 	C 	0.63940 0.31497 0.62690 -0.00200
C 	C 	0.60560 0.27765 0.64624 -0.04300
H 	H 	0.58358 0.22758 0.71320 0.04900
H 	H 	0.74083 0.39753 0.73127 0.05000
H 	H 	0.74576 0.38461 0.81318 0.04800
H 	H 	0.58157 0.23909 0.63185 0.04200
H 	H 	0.61455 0.24111 0.79438 0.08100
H 	H 	0.71287 0.37937 0.64929 0.08200
C 	C 	0.67208 0.33814 0.25366 0.07600
C 	C 	0.70300 0.37260 0.23034 -0.08400
C 	C 	0.72434 0.35960 0.20250 0.01300
C 	C 	0.71459 0.31343 0.19779 0.07600
C 	C 	0.68627 0.28020 0.22325 -0.08300
C 	C 	0.66437 0.29309 0.25048 0.01300
N 	N 	0.66561 0.35087 0.29098 -0.15200
C 	C 	0.65483 0.31465 0.31197 0.00500
C 	C 	0.65403 0.27809 0.28811 -0.05100
N 	N 	0.71460 0.29870 0.15832 -0.15100
C 	C 	0.72412 0.33497 0.13771 0.00300
C 	C 	0.73105 0.37359 0.16437 -0.05000
H 	H 	0.70954 0.40800 0.23320 0.05100
H 	H 	0.67961 0.24476 0.22048 0.05300
H 	H 	0.66040 0.25341 0.30044 0.05100
H 	H 	0.72495 0.39943 0.15435 0.04200
H 	H 	0.68086 0.38689 0.30500 0.08800
H 	H 	0.69512 0.26187 0.14409 0.09300
C 	C 	0.88469 0.86346 0.44707 -0.02200
C 	C 	0.84897 0.84231 0.47251 -0.02000
C 	C 	0.82596 0.79339 0.47676 -0.04900
C 	C 	0.83830 0.76522 0.45544 0.01300
C 	C 	0.87320 0.78606 0.42938 -0.04900
C 	C 	0.89626 0.83488 0.42518 -0.01900
C 	C 	0.81538 0.71416 0.46084 0.00500
C 	C 	0.82654 0.70455 0.49912 -0.04100
C 	C 	0.80910 0.65668 0.50299 -0.03700
C 	C 	0.78043 0.61814 0.46860 -0.00200
C 	C 	0.76803 0.62754 0.43069 -0.03700
C 	C 	0.78542 0.67534 0.42683 -0.04100
C 	C 	0.76465 0.56823 0.47180 0.02600
C 	C 	0.72933 0.54073 0.49608 -0.06700
C 	C 	0.71022 0.49153 0.49540 0.01000
C 	C 	0.72610 0.46930 0.47020 -0.09000
C 	C 	0.76355 0.49779 0.44775 0.01200
C 	C 	0.78263 0.54696 0.44852 -0.06700
H 	H 	0.83984 0.86401 0.48966 0.03800
H 	H 	0.79885 0.77751 0.49680 0.04100
H 	H 	0.88288 0.76455 0.41274 0.04200
H 	H 	0.92338 0.85063 0.40514 0.03900
H 	H 	0.84969 0.73430 0.52554 0.03900
H 	H 	0.81867 0.64972 0.53242 0.03800
H 	H 	0.74545 0.59791 0.40410 0.03800
H 	H 	0.77638 0.68237 0.39723 0.03900
H 	H 	0.71567 0.55705 0.51455 0.04500
H 	H 	0.68218 0.47038 0.51360 0.03100
H 	H 	0.77658 0.48142 0.42849 0.03700
H 	H 	0.81046 0.56817 0.43016 0.04600
C 	C 	0.72142 0.21915 0.44097 -0.09700
C 	C 	0.77104 0.24243 0.43635 0.01300
C 	C 	0.78997 0.21524 0.43164 -0.06900
C 	C 	0.75939 0.16453 0.43122 0.02600
C 	C 	0.70923 0.14086 0.43383 -0.07000
C 	C 	0.69032 0.16803 0.43871 0.01300
C 	C 	0.78066 0.13688 0.43094 -0.00300
C 	C 	0.76706 0.10138 0.39620 -0.03700
C 	C 	0.78655 0.07452 0.39638 -0.04200
C 	C 	0.81956 0.08279 0.43139 0.00500
C 	C 	0.83304 0.11820 0.46614 -0.04200
C 	C 	0.81372 0.14517 0.46590 -0.03700
C 	C 	0.84098 0.05528 0.43132 0.01300
C 	C 	0.87606 0.06481 0.40642 -0.04900
C 	C 	0.89885 0.04113 0.40833 -0.02000
C 	C 	0.88665 0.00757 0.43512 -0.02200
C 	C 	0.85061 0.99715 0.45930 -0.02000
C 	C 	0.82798 0.02103 0.45749 -0.04900
H 	H 	0.79543 0.28181 0.43793 0.03100
H 	H 	0.82866 0.23374 0.42930 0.04600
H 	H 	0.68527 0.10165 0.43323 0.04400
H 	H 	0.65178 0.14949 0.44159 0.02700
H 	H 	0.74148 0.09468 0.36911 0.03800
H 	H 	0.77599 0.04729 0.36939 0.03900
H 	H 	0.85867 0.12496 0.49322 0.03900
H 	H 	0.82422 0.17233 0.49293 0.03500
H 	H 	0.88624 0.09113 0.38607 0.04200
H 	H 	0.92616 0.04905 0.38915 0.04000
H 	H 	0.84093 0.97142 0.48015 0.03800
H 	H 	0.80080 0.01335 0.47674 0.04100
C 	C 	0.04084 0.02111 0.44237 -0.02500
C 	C 	0.06097 0.99974 0.42261 -0.01900
C 	C 	0.11221 0.02707 0.42406 -0.05000
C 	C 	0.14381 0.07598 0.44524 0.01400
C 	C 	0.12375 0.09759 0.46458 -0.05000
C 	C 	0.07247 0.07031 0.46311 -0.01900
C 	C 	0.19796 0.10432 0.44763 0.00400
C 	C 	0.22948 0.11916 0.48592 -0.04100
C 	C 	0.28073 0.14507 0.48804 -0.03700
C 	C 	0.30084 0.15639 0.45190 -0.00200
C 	C 	0.26934 0.14167 0.41363 -0.03800
C 	C 	0.21809 0.11572 0.41150 -0.04100
C 	C 	0.35491 0.18406 0.45416 0.02700
C 	C 	0.37904 0.16309 0.46546 -0.06700
C 	C 	0.43026 0.18916 0.46720 0.01300
C 	C 	0.45785 0.23654 0.45772 -0.08700
C 	C 	0.43357 0.25751 0.44657 0.01300
C 	C 	0.38238 0.23136 0.44479 -0.06700
H 	H 	0.03694 0.96199 0.40613 0.03800
H 	H 	0.12740 0.01012 0.40899 0.04100
H 	H 	0.14789 0.13541 0.48088 0.04100
H 	H 	0.05747 0.08716 0.47866 0.03900
H 	H 	0.21422 0.11035 0.51394 0.03900
H 	H 	0.30480 0.15646 0.51774 0.03800
H 	H 	0.28456 0.15021 0.38556 0.03700
H 	H 	0.19403 0.10444 0.38181 0.03900
H 	H 	0.35804 0.12648 0.47260 0.04500
H 	H 	0.44835 0.17234 0.47550 0.03100
H 	H 	0.45437 0.29419 0.43960 0.03300
H 	H 	0.36407 0.24792 0.43626 0.04500
C 	C 	0.78537 0.50303 0.97861 -0.09000
C 	C 	0.79220 0.51869 0.94034 0.01500
C 	C 	0.81613 0.56840 0.93878 -0.06700
C 	C 	0.83368 0.60286 0.97546 0.02500
C 	C 	0.82840 0.58741 0.01379 -0.06600
C 	C 	0.80422 0.53773 0.01534 0.01500
C 	C 	0.85641 0.65487 0.97374 -0.00100
C 	C 	0.89977 0.68246 0.95722 -0.03700
C 	C 	0.92271 0.73239 0.95760 -0.04200
C 	C 	0.90267 0.75522 0.97476 0.00600
C 	C 	0.85875 0.72739 0.99051 -0.04300
C 	C 	0.83563 0.67740 0.98987 -0.03900
C 	C 	0.92885 0.80863 0.97790 0.00900
C 	C 	0.90500 0.82677 0.95879 -0.04700
C 	C 	0.93004 0.87741 0.96160 -0.02200
C 	C 	0.97926 0.91029 0.98331 -0.01900
C 	C 	0.00285 0.89210 0.00281 -0.02400
C 	C 	0.97772 0.84155 0.00021 -0.04300
H 	H 	0.77768 0.49223 0.91176 0.03500
H 	H 	0.82014 0.57999 0.90904 0.04500
H 	H 	0.84251 0.61384 0.04233 0.04500
H 	H 	0.79962 0.52611 0.04507 0.02200
H 	H 	0.91606 0.66540 0.94466 0.03700
H 	H 	0.95638 0.75348 0.94505 0.03900
H 	H 	0.84300 0.74467 0.00383 0.04100
H 	H 	0.80189 0.65629 0.00233 0.04000
H 	H 	0.86727 0.80164 0.94148 0.04000
H 	H 	0.91154 0.89100 0.94625 0.03900
H 	H 	0.04063 0.91714 0.02004 0.04000
H 	H 	0.99622 0.82793 0.01553 0.04100
C 	C 	0.98624 0.05949 0.00058 -0.01200
C 	C 	0.00180 0.10246 0.98514 -0.03000
C 	C 	0.97764 0.12437 0.99091 -0.04600
C 	C 	0.93761 0.10352 0.01200 0.01200
C 	C 	0.92244 0.06107 0.02793 -0.04600
C 	C 	0.94670 0.03923 0.02240 -0.02400
C 	C 	0.91032 0.12499 0.01589 0.00700
C 	C 	0.93260 0.17032 0.04224 -0.04200
C 	C 	0.90767 0.19187 0.04427 -0.03700
C 	C 	0.86040 0.16840 0.01973 0.00000
C 	C 	0.83775 0.12255 0.99403 -0.03900
C 	C 	0.86256 0.10090 0.99222 -0.04400
C 	C 	0.83614 0.19331 0.01866 0.02500
C 	C 	0.85966 0.23889 0.00605 -0.06600
C 	C 	0.83463 0.26000 0.00053 0.01200
C 	C 	0.78556 0.23552 0.00716 -0.09400
C 	C 	0.76290 0.19102 0.02172 0.01200
C 	C 	0.78811 0.17005 0.02746 -0.06700
H 	H 	0.03200 0.11840 0.96806 0.04100
H 	H 	0.98949 0.15711 0.97842 0.04000
H 	H 	0.89169 0.04487 0.04442 0.04100
H 	H 	0.93474 0.00657 0.03506 0.04200
H 	H 	0.96936 0.18902 0.06081 0.04000
H 	H 	0.92536 0.22711 0.06440 0.03800
H 	H 	0.80141 0.10424 0.97480 0.03500
H 	H 	0.84509 0.06587 0.97182 0.03900
H 	H 	0.89683 0.25729 0.99940 0.04200
H 	H 	0.85300 0.29485 0.99016 0.02700
H 	H 	0.72524 0.17186 0.02730 0.03400
H 	H 	0.76988 0.13517 0.03777 0.04500
C 	C 	0.13316 0.06837 0.97605 -0.02500
C 	C 	0.14811 0.04829 0.94744 -0.02000
C 	C 	0.19843 0.07278 0.94582 -0.04900
C 	C 	0.23432 0.11768 0.97266 0.01200
C 	C 	0.21933 0.13879 0.00011 -0.04800
C 	C 	0.16893 0.11426 0.00178 -0.01800
C 	C 	0.28764 0.14108 0.97362 0.00300
C 	C 	0.31769 0.14653 0.00959 -0.03900
C 	C 	0.36761 0.16643 0.00991 -0.03500
C 	C 	0.38790 0.18094 0.97424 -0.00400
C 	C 	0.35791 0.17568 0.93831 -0.03700
C 	C 	0.30799 0.15588 0.93802 -0.04100
C 	C 	0.44088 0.20293 0.97492 0.02600
C 	C 	0.45932 0.17586 0.98249 -0.06700
C 	C 	0.51014 0.19782 0.98591 0.01300
C 	C 	0.54306 0.24717 0.98190 -0.08900
C 	C 	0.52416 0.27364 0.97294 0.01100
C 	C 	0.47339 0.25164 0.96958 -0.06700
H 	H 	0.12079 0.01327 0.92697 0.03900
H 	H 	0.20963 0.05630 0.92439 0.04100
H 	H 	0.24676 0.17370 0.02068 0.04100
H 	H 	0.15790 0.13019 0.02395 0.03900
H 	H 	0.30222 0.13490 0.03713 0.03900
H 	H 	0.39057 0.17072 0.03789 0.03800
H 	H 	0.37326 0.18683 0.91064 0.03700
H 	H 	0.28508 0.15181 0.91011 0.03800
H 	H 	0.43437 0.13801 0.98616 0.04500
H 	H 	0.52392 0.17662 0.99211 0.03300
H 	H 	0.54889 0.31161 0.96953 0.03000
H 	H 	0.45946 0.27278 0.96364 0.04500
