data_crystal

_cell_length_a 17.56765
_cell_length_b 16.93279
_cell_length_c 65.98115
_cell_angle_alpha 90.05489
_cell_angle_beta  89.97694
_cell_angle_gamma 120.01947

_symmetry_space_group_name_	'P 1'
_symmetry_space_group_name_H-M	'P 1'

loop_
_symmetry_equiv_pos_as_xyz
  x,y,z

loop_
_atom_site_label
_atom_site_type_symbol
_atom_site_fract_x
_atom_site_fract_y
_atom_site_fract_z
_atom_site_charge
C 	C 	0.60196 0.43415 0.59696 0.34900
C 	C 	0.57356 0.44193 0.54096 0.28500
C 	C 	0.55423 0.13473 0.58389 0.33200
C 	C 	0.57383 0.18070 0.53215 0.28200
Ni	Ni	0.54057 0.28187 0.56602 1.12800
O 	O 	0.53670 0.19974 0.58819 -0.34900
O 	O 	0.67932 0.44444 0.59451 -0.35000
O 	O 	0.53451 0.37193 0.58633 -0.34400
O 	O 	0.65775 0.20894 0.53679 -0.36700
O 	O 	0.51722 0.18106 0.54570 -0.36400
O 	O 	0.63608 0.49416 0.55411 -0.34500
O 	O 	0.52431 0.35263 0.54355 -0.37100
O 	O 	0.63391 0.15628 0.57816 -0.34200
O 	O 	0.66341 0.34301 0.56067 -0.71200
H 	H 	0.66028 0.34689 0.54584 0.14900
C 	C 	0.35091 0.54437 0.44847 0.28300
C 	C 	0.16569 0.58716 0.38012 0.33800
C 	C 	0.36906 0.51242 0.39175 0.34300
C 	C 	0.13820 0.61094 0.43732 0.28400
C 	C 	0.44667 0.83410 0.38880 0.33600
C 	C 	0.42619 0.82407 0.44157 0.28500
Ni	Ni	0.22778 0.52360 0.41482 1.12200
Ni	Ni	0.28075 0.73677 0.40975 1.12500
Ni	Ni	0.43252 0.68360 0.41511 1.12600
O 	O 	0.26627 0.50820 0.44373 -0.35900
O 	O 	0.41231 0.57939 0.43413 -0.35400
O 	O 	0.36113 0.78711 0.38601 -0.36000
O 	O 	0.20957 0.54625 0.38490 -0.34500
O 	O 	0.17553 0.65788 0.39089 -0.34400
O 	O 	0.45780 0.76767 0.43882 -0.37400
O 	O 	0.30579 0.47145 0.40504 -0.34600
O 	O 	0.41466 0.60221 0.39072 -0.34900
O 	O 	0.37629 0.83488 0.42772 -0.36900
O 	O 	0.12634 0.54506 0.42466 -0.35500
O 	O 	0.19393 0.69760 0.43297 -0.37200
O 	O 	0.48796 0.79406 0.39647 -0.34300
O 	O 	0.31136 0.64813 0.41730 -0.71100
H 	H 	0.30758 0.65483 0.43201 0.14600
C 	C 	0.48180 0.64487 0.62798 0.31600
C 	C 	0.13303 0.56858 0.64426 0.34700
C 	C 	0.37051 0.78381 0.61389 0.34300
C 	C 	0.22458 0.43230 0.66110 0.32400
C 	C 	0.31977 0.80119 0.67955 0.34700
C 	C 	0.46202 0.71432 0.69306 0.32800
Ni	Ni	0.29352 0.58979 0.62838 1.13300
Ni	Ni	0.27011 0.61250 0.67640 1.12800
Ni	Ni	0.43784 0.76640 0.65296 1.12900
O 	O 	0.40270 0.57907 0.62266 -0.33900
O 	O 	0.49834 0.73026 0.63095 -0.33700
O 	O 	0.25703 0.72146 0.67406 -0.37500
O 	O 	0.19923 0.62440 0.63349 -0.35200
O 	O 	0.14804 0.54462 0.66226 -0.33800
O 	O 	0.49314 0.73089 0.67449 -0.36800
O 	O 	0.35225 0.70137 0.60856 -0.32800
O 	O 	0.37695 0.80568 0.63298 -0.36000
O 	O 	0.37470 0.66979 0.69698 -0.33100
O 	O 	0.22016 0.45772 0.64207 -0.31600
O 	O 	0.26685 0.49247 0.67559 -0.35700
O 	O 	0.40207 0.82915 0.67437 -0.34300
O 	O 	0.34481 0.64309 0.65339 -0.71800
H 	H 	0.37610 0.61028 0.65684 0.18300
C 	C 	0.08872 0.89820 0.77481 0.30400
C 	C 	0.09794 0.89868 0.71894 0.32800
C 	C 	0.10093 0.15425 0.77743 0.31000
C 	C 	0.07548 0.15772 0.71908 0.30300
Ni	Ni	0.12375 0.04691 0.74610 1.12600
O 	O 	0.12931 0.09741 0.77375 -0.39000
O 	O 	0.00435 0.84411 0.77165 -0.36500
O 	O 	0.13979 0.94914 0.76002 -0.36700
O 	O 	0.13504 0.15910 0.73180 -0.34800
O 	O 	0.01991 0.83470 0.72619 -0.33000
O 	O 	0.12372 0.98641 0.71990 -0.35500
O 	O 	0.04647 0.16060 0.76473 -0.37600
C 	C 	0.25253 0.73235 0.93384 0.32700
C 	C 	0.50863 0.79462 0.86824 0.31600
C 	C 	0.24420 0.75393 0.87460 0.30000
C 	C 	0.54160 0.79098 0.92174 0.32700
C 	C 	0.27258 0.53316 0.86381 0.31200
C 	C 	0.28419 0.46857 0.91444 0.31800
Ni	Ni	0.39824 0.80653 0.90156 1.11900
Ni	Ni	0.41895 0.62974 0.89314 1.12400
Ni	Ni	0.22730 0.60299 0.90047 1.12900
O 	O 	0.29960 0.79919 0.92077 -0.34900
O 	O 	0.21791 0.64534 0.92859 -0.34100
O 	O 	0.33255 0.52922 0.87499 -0.38200
O 	O 	0.50751 0.84609 0.88296 -0.36100
O 	O 	0.45246 0.70744 0.86801 -0.38900
O 	O 	0.22008 0.48877 0.91279 -0.34200
O 	O 	0.32978 0.80381 0.87584 -0.37000
O 	O 	0.19920 0.69817 0.88946 -0.35800
O 	O 	0.36851 0.53377 0.91490 -0.34900
O 	O 	0.47994 0.81286 0.92462 -0.35100
O 	O 	0.53020 0.72250 0.90934 -0.34200
O 	O 	0.22312 0.56408 0.87142 -0.37700
O 	O 	0.35111 0.67925 0.90319 -0.72400
H 	H 	0.35711 0.67109 0.91779 0.17600
C 	C 	0.48797 0.26052 0.05178 0.33500
C 	C 	0.47638 0.24084 0.10711 0.28300
Ni	Ni	0.59261 0.20470 0.07952 1.12300
Ni	Ni	0.59601 0.40083 0.08119 1.12600
O 	O 	0.49595 0.19211 0.05884 -0.32100
O 	O 	0.55259 0.34454 0.05366 -0.35700
O 	O 	0.67627 0.21715 0.05588 -0.33700
O 	O 	0.63965 0.46547 0.10789 -0.37200
O 	O 	0.50093 0.18089 0.10207 -0.34400
O 	O 	0.48140 0.30257 0.09392 -0.36300
O 	O 	0.64989 0.32919 0.08623 -0.71300
H 	H 	0.64084 0.32382 0.10098 0.14700
C 	C 	0.12371 0.09766 0.19441 0.27600
C 	C 	0.19976 0.12003 0.24726 0.35000
Ni	Ni	0.05630 0.15017 0.23279 1.10900
Ni	Ni	0.05160 0.95760 0.22695 1.10400
O 	O 	0.13866 0.16029 0.20855 -0.35000
O 	O 	0.08085 0.00864 0.19847 -0.36400
O 	O 	0.14556 0.14774 0.25308 -0.34300
O 	O 	0.17678 0.05818 0.23298 -0.35200
O 	O 	0.03579 0.92186 0.25642 -0.38300
C 	C 	0.62409 0.19854 0.35660 0.34300
C 	C 	0.52106 0.34420 0.34772 0.32100
C 	C 	0.53816 0.28726 0.28017 0.32700
Ni	Ni	0.56146 0.22622 0.31934 1.14000
O 	O 	0.59304 0.16437 0.29709 -0.33500
O 	O 	0.64645 0.28045 0.36378 -0.32200
O 	O 	0.62995 0.19027 0.33737 -0.35600
O 	O 	0.62428 0.32212 0.27609 -0.33000
O 	O 	0.50701 0.26746 0.29875 -0.35900
O 	O 	0.60211 0.41285 0.35023 -0.35000
O 	O 	0.50567 0.26059 0.34302 -0.32600
O 	O 	0.65677 0.34719 0.31970 -0.71700
H 	H 	0.62439 0.37958 0.31706 0.18300
C 	C 	0.11627 0.12882 0.94703 0.34000
C 	C 	0.13524 0.92212 0.98274 0.35000
C 	C 	0.17588 0.16974 0.01183 0.34300
Ni	Ni	0.04148 0.98059 0.01180 1.10300
O 	O 	0.11852 0.19410 0.00600 -0.34600
O 	O 	0.05179 0.04662 0.94256 -0.32600
O 	O 	0.12660 0.15868 0.96559 -0.36300
O 	O 	0.12547 0.97536 0.97051 -0.37100
O 	O 	0.09636 0.90570 0.00062 -0.35200
O 	O 	0.16079 0.08766 0.00839 -0.36200
C 	C 	0.42299 0.15790 0.26100 0.09400
C 	C 	0.47306 0.25293 0.26365 -0.08400
C 	C 	0.43609 0.30615 0.25755 0.10200
C 	C 	0.34601 0.26350 0.25224 0.11500
C 	C 	0.29213 0.16766 0.25431 -0.10600
C 	C 	0.33146 0.11551 0.25932 0.13000
Br	Br	0.25981 0.98735 0.26541 -0.18400
Br	Br	0.47930 0.08618 0.25905 -0.12900
Br	Br	0.29882 0.33554 0.24121 -0.18600
Br	Br	0.50766 0.43704 0.25764 -0.14500
Br	Br	0.63386 0.99384 0.31243 -0.16500
Br	Br	0.61002 0.54246 0.03176 -0.14700
C 	C 	0.40845 0.28487 0.02294 0.11100
C 	C 	0.40521 0.24276 0.04167 -0.09300
C 	C 	0.32427 0.19582 0.05212 0.10300
C 	C 	0.25068 0.19878 0.04475 0.10300
C 	C 	0.25113 0.22899 0.02490 -0.09200
C 	C 	0.33268 0.28426 0.01559 0.11100
Br	Br	0.34031 0.36019 0.99323 -0.11800
Br	Br	0.50931 0.32551 0.00556 -0.10900
Br	Br	0.14705 0.15494 0.06119 -0.18400
Br	Br	0.30874 0.11354 0.07393 -0.16800
C 	C 	0.42523 0.22495 0.12569 -0.05400
C 	C 	0.45549 0.20722 0.14383 0.01200
C 	C 	0.40277 0.18092 0.16111 -0.04700
C 	C 	0.31868 0.17100 0.16036 0.02500
C 	C 	0.28863 0.19101 0.14226 0.02600
C 	C 	0.34290 0.21963 0.12508 -0.01000
C 	C 	0.20386 0.17986 0.14149 -0.04800
C 	C 	0.14923 0.14827 0.15852 0.01100
C 	C 	0.17902 0.12790 0.17638 -0.05300
C 	C 	0.26376 0.13996 0.17734 -0.01100
H 	H 	0.51953 0.21248 0.14443 0.03900
H 	H 	0.42670 0.16662 0.17498 0.06200
H 	H 	0.32013 0.23479 0.11113 0.07100
H 	H 	0.18010 0.19500 0.12771 0.06200
H 	H 	0.08391 0.13979 0.15784 0.03100
H 	H 	0.28669 0.12496 0.19130 0.06300
H 	H 	0.71922 0.76483 0.14747 0.05500
C 	C 	0.63153 0.84840 0.95329 0.11200
C 	C 	0.62736 0.84770 0.93192 -0.09400
Br	Br	0.54043 0.74891 0.96849 -0.11400
C 	C 	0.26420 0.25111 0.93645 0.10900
C 	C 	0.17629 0.19034 0.93121 -0.09900
C 	C 	0.14142 0.21042 0.91425 0.10400
C 	C 	0.18040 0.30111 0.90734 0.10100
C 	C 	0.25881 0.37018 0.91666 -0.09200
C 	C 	0.30499 0.34277 0.92994 0.10100
Br	Br	0.42292 0.42746 0.93888 -0.12600
Br	Br	0.32798 0.20716 0.95205 -0.12000
Br	Br	0.12605 0.32920 0.88529 -0.19100
Br	Br	0.04881 0.11270 0.89901 -0.14600
C 	C 	0.23794 0.86100 0.97870 0.11700
C 	C 	0.15769 0.85637 0.97376 -0.10500
C 	C 	0.10604 0.79793 0.95772 0.12100
C 	C 	0.12732 0.73514 0.94993 0.11200
C 	C 	0.21413 0.75374 0.95133 -0.09000
C 	C 	0.26884 0.81399 0.96656 0.10300
Br	Br	0.38575 0.83418 0.97026 -0.14400
Br	Br	0.30799 0.93661 0.00087 -0.15200
Br	Br	0.04053 0.63111 0.93495 -0.15900
C 	C 	0.19822 0.76885 0.85756 -0.05800
C 	C 	0.11940 0.69635 0.85000 0.01100
C 	C 	0.08179 0.70738 0.83229 -0.04800
C 	C 	0.12283 0.79101 0.82189 0.02100
C 	C 	0.20123 0.86466 0.82963 0.02600
C 	C 	0.23801 0.85356 0.84754 -0.01400
C 	C 	0.24272 0.94805 0.81917 -0.05800
C 	C 	0.20683 0.95827 0.80112 0.01000
C 	C 	0.12874 0.88551 0.79335 -0.05600
C 	C 	0.08687 0.80172 0.80378 -0.01000
H 	H 	0.08857 0.63064 0.85749 0.05000
H 	H 	0.02148 0.65047 0.82651 0.05600
H 	H 	0.29829 0.91013 0.85347 0.05500
H 	H 	0.30287 0.00502 0.82500 0.06500
H 	H 	0.23919 0.02324 0.79332 0.05000
H 	H 	0.02693 0.74501 0.79776 0.06100
C 	C 	0.13867 0.21835 0.79465 -0.06400
C 	C 	0.18891 0.20437 0.80929 0.01600
C 	C 	0.23018 0.26730 0.82485 -0.04700
C 	C 	0.22031 0.34418 0.82635 0.02700
C 	C 	0.16787 0.35774 0.81212 0.02400
C 	C 	0.12773 0.29506 0.79618 -0.01100
C 	C 	0.15548 0.43316 0.81419 -0.04700
C 	C 	0.19260 0.49286 0.83063 0.01700
C 	C 	0.24358 0.47853 0.84498 -0.05700
C 	C 	0.26009 0.40613 0.84228 -0.00700
H 	H 	0.19643 0.14472 0.80855 0.04800
H 	H 	0.26927 0.25571 0.83588 0.06100
H 	H 	0.08870 0.30613 0.78503 0.06100
H 	H 	0.11589 0.44470 0.80330 0.06000
H 	H 	0.18075 0.54947 0.83233 0.04800
H 	H 	0.30004 0.39516 0.85319 0.06300
C 	C 	0.71405 0.75976 0.82401 -0.04300
C 	C 	0.67940 0.81330 0.83115 0.02100
C 	C 	0.60858 0.91991 0.84499 0.03100
C 	C 	0.57853 0.83246 0.85297 -0.06600
C 	C 	0.61486 0.77989 0.84620 0.00200
H 	H 	0.69303 0.69321 0.83052 0.06000
H 	H 	0.59282 0.71302 0.85270 0.04900
C 	C 	0.64986 0.74311 0.72420 0.10900
C 	C 	0.56010 0.70166 0.71842 0.10400
C 	C 	0.52730 0.75454 0.70967 -0.08500
C 	C 	0.58139 0.85013 0.71001 0.09900
Br	Br	0.53089 0.92746 0.70847 -0.14500
Br	Br	0.48246 0.57287 0.72219 -0.14000
C 	C 	0.20714 0.28469 0.67196 0.11000
C 	C 	0.16770 0.33639 0.66720 -0.09000
C 	C 	0.08577 0.31102 0.67581 0.10600
C 	C 	0.06118 0.26244 0.69407 0.09800
C 	C 	0.10614 0.21720 0.70070 -0.08300
C 	C 	0.17929 0.22756 0.68917 0.10600
Br	Br	0.24668 0.17181 0.69754 -0.14900
Br	Br	0.29525 0.28837 0.65414 -0.11500
Br	Br	0.00145 0.32760 0.66093 -0.14800
C 	C 	0.26991 0.91224 0.68311 0.11000
C 	C 	0.29695 0.85644 0.69260 -0.09400
C 	C 	0.26449 0.82290 0.71214 0.10200
C 	C 	0.19069 0.82534 0.71961 0.10600
C 	C 	0.15595 0.87161 0.70865 -0.09400
C 	C 	0.19349 0.91132 0.68980 0.11200
Br	Br	0.13253 0.95072 0.67187 -0.12000
Br	Br	0.33674 0.98804 0.66079 -0.11100
Br	Br	0.13344 0.75894 0.74393 -0.17800
Br	Br	0.31763 0.76849 0.72812 -0.16900
C 	C 	0.41558 0.39537 0.38945 0.10900
C 	C 	0.39573 0.45709 0.37967 -0.10200
C 	C 	0.39346 0.45893 0.35831 0.11000
C 	C 	0.42171 0.40784 0.34695 0.10200
C 	C 	0.45061 0.35425 0.35693 -0.08800
C 	C 	0.43642 0.33926 0.37785 0.10500
Br	Br	0.45299 0.24682 0.39074 -0.14900
Br	Br	0.42338 0.39426 0.41863 -0.17100
Br	Br	0.42569 0.41469 0.31779 -0.14300
Br	Br	0.34970 0.52909 0.34473 -0.13000
C 	C 	0.03839 0.44693 0.36495 0.09100
C 	C 	0.09338 0.54297 0.36492 -0.09600
C 	C 	0.08647 0.59397 0.34878 0.10900
Br	Br	0.16169 0.72456 0.34788 -0.14000
C 	C 	0.60080 0.09296 0.38571 0.10700
C 	C 	0.56727 0.11323 0.36828 -0.09400
C 	C 	0.49456 0.04026 0.35820 0.13200
C 	C 	0.47047 0.94986 0.36251 0.09100
C 	C 	0.49794 0.92885 0.38058 -0.11100
C 	C 	0.56583 0.00093 0.39203 0.13600
Br	Br	0.61857 0.97460 0.41467 -0.19700
Br	Br	0.41027 0.85672 0.34225 -0.11000
Br	Br	0.42656 0.06240 0.33857 -0.20800
C 	C 	0.63641 0.59545 0.60277 0.11600
C 	C 	0.59375 0.50291 0.60900 -0.10400
C 	C 	0.55248 0.47994 0.62802 0.11600
C 	C 	0.53720 0.54371 0.63822 0.10500
C 	C 	0.55298 0.62367 0.62811 -0.09200
C 	C 	0.61356 0.65539 0.61213 0.10800
Br	Br	0.66480 0.77987 0.60325 -0.12800
Br	Br	0.48944 0.52012 0.66516 -0.14700
Br	Br	0.52526 0.36639 0.64073 -0.10700
C 	C 	0.04884 0.51053 0.63355 -0.10500
C 	C 	0.04772 0.46648 0.61502 0.11200
Br	Br	0.15399 0.48216 0.60264 -0.25600
C 	C 	0.45566 0.87858 0.58432 0.10400
C 	C 	0.38812 0.85435 0.59854 -0.10200
C 	C 	0.35477 0.91353 0.60170 0.11000
C 	C 	0.40458 0.00586 0.59577 0.10400
C 	C 	0.48439 0.03564 0.58500 -0.09800
C 	C 	0.50113 0.96820 0.57674 0.10900
Br	Br	0.57471 0.99354 0.55317 -0.18800
Br	Br	0.48412 0.78892 0.57466 -0.14600
Br	Br	0.35682 0.08538 0.60009 -0.15000
Br	Br	0.23906 0.86591 0.61314 -0.12800
C 	C 	0.54458 0.48553 0.52586 -0.05100
C 	C 	0.60668 0.56041 0.51458 0.01000
C 	C 	0.57980 0.59250 0.49810 -0.04400
C 	C 	0.49056 0.54932 0.49263 0.02300
C 	C 	0.42745 0.47684 0.50454 0.02500
C 	C 	0.45463 0.44635 0.52131 -0.01300
C 	C 	0.33837 0.43311 0.49901 -0.04700
C 	C 	0.31266 0.45758 0.48114 0.01300
C 	C 	0.37567 0.52669 0.46868 -0.05300
C 	C 	0.46414 0.57501 0.47493 -0.01300
H 	H 	0.62866 0.64907 0.48923 0.05800
H 	H 	0.40626 0.39022 0.53039 0.06100
H 	H 	0.28927 0.37836 0.50824 0.05900
H 	H 	0.24408 0.42099 0.47673 0.05100
H 	H 	0.51258 0.63053 0.46573 0.05400
C 	C 	0.46598 0.89249 0.45790 -0.05100
C 	C 	0.54983 0.91610 0.46529 0.02400
C 	C 	0.58999 0.98294 0.48011 -0.06400
C 	C 	0.54599 0.02525 0.48831 0.04100
C 	C 	0.46081 0.00067 0.48141 0.03000
C 	C 	0.42140 0.93493 0.46600 -0.02200
C 	C 	0.41572 0.04085 0.49031 -0.04500
C 	C 	0.45379 0.10245 0.50641 0.00900
C 	C 	0.53781 0.12536 0.51356 -0.04600
C 	C 	0.58501 0.08952 0.50383 -0.01600
H 	H 	0.58475 0.88364 0.45926 0.05800
H 	H 	0.65512 0.00099 0.48542 0.07400
H 	H 	0.35613 0.91593 0.46059 0.05400
H 	H 	0.35067 0.02323 0.48505 0.05900
H 	H 	0.41757 0.13146 0.51343 0.05200
H 	H 	0.65062 0.10837 0.50895 0.06800
C 	C 	0.05861 0.65439 0.46231 0.02200
C 	C 	0.07796 0.58888 0.45469 -0.06100
C 	C 	0.04133 0.50287 0.46399 -0.02800
H 	H 	0.05672 0.45240 0.45825 0.05300
Ni	Ni	0.02449 0.12560 0.98432 1.11700
Br	Br	0.70010 0.69101 0.99387 -0.11900
Br	Br	0.06722 0.29547 0.03683 -0.17700
Br	Br	0.03020 0.82406 0.94144 -0.27400
C 	C 	0.02438 0.54910 0.33311 0.08000
Br	Br	0.03212 0.37624 0.38847 -0.20800
Br	Br	0.03985 0.60976 0.30767 -0.14500
Br	Br	0.65550 0.02654 0.06443 -0.15500
H 	H 	0.66075 0.14284 0.18751 0.06600
H 	H 	0.58102 0.96097 0.85024 0.04600
H 	H 	0.08569 0.72057 0.45514 0.04600
C 	C 	0.67490 0.18771 0.29284 0.35500
H 	H 	0.66526 0.19559 0.15245 0.04600
H 	H 	0.69801 0.63708 0.12602 0.05800
H 	H 	0.67605 0.59164 0.51811 0.05000
O 	O 	0.67485 0.18460 0.09959 -0.34000
C 	C 	0.69818 0.91753 0.92098 0.11000
Br	Br	0.71176 0.90319 0.89267 -0.18300
Br	Br	0.69135 0.67195 0.73820 -0.17800
O 	O 	0.69553 0.50997 0.06734 -0.35700
Br	Br	0.73687 0.64408 0.58500 -0.21900
Ni	Ni	0.71827 0.27051 0.56282 1.12900
Ni	Ni	0.70994 0.39874 0.34483 1.11900
Ni	Ni	0.72892 0.37721 0.29639 1.13700
O 	O 	0.72755 0.49402 0.29898 -0.35200
C 	C 	0.71361 0.06863 0.29150 0.13000
C 	C 	0.69604 0.12901 0.28082 -0.09900
Br	Br	0.70210 0.22600 0.24436 -0.17400
C 	C 	0.70576 0.91830 0.96335 0.10000
Br	Br	0.71052 0.92429 0.99245 -0.15100
C 	C 	0.70832 0.90056 0.82278 0.03400
C 	C 	0.67334 0.95394 0.82996 -0.06200
H 	H 	0.69547 0.02121 0.82374 0.07400
C 	C 	0.67260 0.88934 0.71227 0.10400
C 	C 	0.70770 0.83715 0.72017 -0.09200
Br	Br	0.69617 0.19034 0.40053 -0.14100
H 	H 	0.72883 0.09996 0.21488 0.07000
Br	Br	0.02006 0.68868 0.00438 -0.17000
C 	C 	0.71734 0.13553 0.18419 -0.04000
H 	H 	0.78242 0.85987 0.17787 0.03900
C 	C 	0.75712 0.74897 0.15797 -0.04800
C 	C 	0.73328 0.59346 0.02572 0.11300
Ni	Ni	0.73267 0.46810 0.56612 1.12600
C 	C 	0.72660 0.24090 0.11414 0.27900
C 	C 	0.74875 0.50306 0.05433 0.33700
C 	C 	0.72276 0.49971 0.11349 0.28400
O 	O 	0.73923 0.26665 0.29827 -0.37000
C 	C 	0.74217 0.16636 0.26277 0.10500
Br	Br	0.77721 0.93478 0.04977 -0.18200
C 	C 	0.71967 0.18428 0.14926 -0.01400
C 	C 	0.73601 0.62196 0.13668 -0.01100
C 	C 	0.79273 0.80270 0.17527 0.00700
C 	C 	0.76714 0.99045 0.93144 0.08600
Br	Br	0.74954 0.01241 0.70305 -0.14400
C 	C 	0.76973 0.10250 0.05253 0.10500
O 	O 	0.77074 0.32265 0.59041 -0.34400
C 	C 	0.75914 0.24307 0.05941 0.34100
Ni	Ni	0.77482 0.39579 0.08572 1.12800
O 	O 	0.76849 0.33138 0.11210 -0.36800
O 	O 	0.77834 0.44641 0.05786 -0.34800
C 	C 	0.78231 0.55508 0.31172 0.32200
O 	O 	0.78677 0.53189 0.33114 -0.32400
C 	C 	0.78677 0.56975 0.03743 -0.09300
C 	C 	0.77144 0.65885 0.01012 0.10700
C 	C 	0.75585 0.11108 0.19972 0.01800
C 	C 	0.75339 0.15278 0.16459 0.02400
C 	C 	0.75756 0.20284 0.12987 -0.05100
C 	C 	0.75256 0.55059 0.13262 -0.05700
C 	C 	0.77083 0.67553 0.15417 0.02100
C 	C 	0.77897 0.98154 0.95207 -0.08000
C 	C 	0.77453 0.79104 0.80814 0.01700
C 	C 	0.76985 0.93202 0.80699 -0.01300
H 	H 	0.79076 0.99808 0.80019 0.05400
Br	Br	0.79426 0.47763 0.63492 -0.12700
C 	C 	0.79463 0.07201 0.28866 0.09600
O 	O 	0.79545 0.48084 0.53878 -0.36100
C 	C 	0.79963 0.88511 0.72798 0.32800
O 	O 	0.78263 0.50508 0.10044 -0.36200
O 	O 	0.80296 0.30249 0.07375 -0.35900
O 	O 	0.80817 0.36882 0.34026 -0.35100
C 	C 	0.82227 0.06392 0.04707 0.13300
C 	C 	0.80170 0.19680 0.04940 -0.09100
C 	C 	0.80144 0.87639 0.79935 -0.05900
H 	H 	0.79977 0.74847 0.80249 0.05300
C 	C 	0.82625 0.42598 0.53405 0.28100
C 	C 	0.83016 0.40853 0.59321 0.34700
O 	O 	0.82688 0.36858 0.54773 -0.35000
O 	O 	0.82379 0.95717 0.74007 -0.35200
C 	C 	0.82599 0.17670 0.26034 0.10000
Br	Br	0.83508 0.01927 0.30877 -0.09100
C 	C 	0.80251 0.53159 0.14627 0.00900
Br	Br	0.84724 0.10062 0.91749 -0.10400
O 	O 	0.84026 0.47007 0.57975 -0.34600
O 	O 	0.84247 0.84412 0.76705 -0.35100
O 	O 	0.83129 0.87365 0.21607 -0.38000
O 	O 	0.84088 0.04281 0.22811 -0.35300
Br	Br	0.84102 0.73444 0.33830 -0.14200
C 	C 	0.85093 0.12469 0.27263 -0.09300
C 	C 	0.83128 0.10493 0.19586 -0.04800
C 	C 	0.82586 0.14064 0.16040 0.02700
C 	C 	0.82112 0.65616 0.16791 0.02700
H 	H 	0.81550 0.47656 0.14319 0.04800
C 	C 	0.84178 0.78318 0.18915 -0.05400
C 	C 	0.85751 0.90458 0.78132 0.30200
O 	O 	0.85139 0.85023 0.72461 -0.33700
O 	O 	0.85250 0.44205 0.31010 -0.32100
C 	C 	0.86571 0.99823 0.95854 0.28500
C 	C 	0.85514 0.64052 0.30275 -0.08200
C 	C 	0.86211 0.70131 0.00637 -0.08900
C 	C 	0.82707 0.18715 0.12561 0.01700
C 	C 	0.83614 0.58366 0.16389 -0.04700
Ni	Ni	0.87527 0.95414 0.24060 1.11000
C 	C 	0.87108 0.41681 0.32752 0.32800
O 	O 	0.88003 0.92897 0.95685 -0.33300
C 	C 	0.87948 0.72645 0.31141 0.10700
Br	Br	0.86062 0.52419 0.26983 -0.19700
C 	C 	0.86404 0.11627 0.17605 -0.01500
C 	C 	0.85616 0.70992 0.18538 -0.01600
C 	C 	0.87717 0.61062 0.03288 0.10900
C 	C 	0.88266 0.09851 0.21267 0.27800
C 	C 	0.87654 0.83886 0.20769 0.28100
O 	O 	0.88580 0.85573 0.25542 -0.37300
C 	C 	0.88937 0.63779 0.28319 0.11100
C 	C 	0.86121 0.15639 0.14078 -0.04500
H 	H 	0.85561 0.20027 0.11056 0.06100
C 	C 	0.87974 0.44492 0.51550 -0.04900
H 	H 	0.86895 0.31192 0.51463 0.05200
C 	C 	0.88697 0.25121 0.04165 0.10100
H 	H 	0.87451 0.56808 0.17431 0.06700
C 	C 	0.89863 0.43161 0.60857 -0.09900
C 	C 	0.89762 0.47332 0.62701 0.10900
H 	H 	0.90185 0.58183 0.51193 0.06300
C 	C 	0.00403 0.63475 0.47918 -0.08600
O 	O 	0.91097 0.02686 0.26629 -0.34400
C 	C 	0.90856 0.79650 0.99913 0.32700
C 	C 	0.90764 0.11982 0.03933 -0.09300
H 	H 	0.89367 0.69433 0.19608 0.07400
C 	C 	0.89687 0.37836 0.50754 0.01100
Br	Br	0.91159 0.27782 0.24436 -0.14900
O 	O 	0.91445 0.99151 0.77860 -0.37500
C 	C 	0.91091 0.66657 0.01578 0.12300
C 	C 	0.91481 0.53014 0.50587 -0.02300
C 	C 	0.92379 0.10955 0.26626 0.33600
C 	C 	0.92822 0.80664 0.29980 0.11600
O 	O 	0.92798 0.86147 0.01269 -0.35600
O 	O 	0.93241 0.09785 0.00491 -0.34900
O 	O 	0.93245 0.08383 0.96115 -0.30400
H 	H 	0.93376 0.97148 0.99060 0.15300
H 	H 	0.92119 0.10940 0.17300 0.05300
H 	H 	0.91606 0.14621 0.13736 0.06500
Br	Br	0.92344 0.27278 0.34567 -0.10700
Br	Br	0.92619 0.37485 0.03335 -0.12400
C 	C 	0.94185 0.08184 0.02402 0.33900
C 	C 	0.94210 0.71900 0.27265 0.14300
Ni	Ni	0.93745 0.85370 0.74670 1.12600
Ni	Ni	0.94621 0.05084 0.75095 1.13000
O 	O 	0.94367 0.84079 0.21742 -0.35300
O 	O 	0.94216 0.81488 0.98031 -0.30900
C 	C 	0.94948 0.80031 0.27956 -0.10700
C 	C 	0.94280 0.21491 0.03949 0.12400
C 	C 	0.95003 0.39724 0.49040 -0.04700
C 	C 	0.95798 0.86845 0.26455 0.37000
Br	Br	0.95812 0.60638 0.05201 -0.15200
Br	Br	0.00207 0.71866 0.24816 -0.20500
H 	H 	0.96311 0.34540 0.48452 0.06400
O 	O 	0.96741 0.16126 0.21387 -0.33300
C 	C 	0.96358 0.45487 0.33464 -0.06900
Br	Br	0.96139 0.34085 0.58181 -0.16400
H 	H 	0.97203 0.02009 0.21516 0.15700
Br	Br	0.97651 0.92467 0.31220 -0.12600
C 	C 	0.96966 0.41939 0.60398 0.12300
C 	C 	0.97207 0.51055 0.63980 0.12400
Br	Br	0.97084 0.56650 0.66518 -0.12600
C 	C 	0.96806 0.54937 0.48866 0.04400
Br	Br	0.97999 0.27545 0.71153 -0.14000
C 	C 	0.98634 0.48275 0.48094 0.03300
C 	C 	0.98085 0.40339 0.34864 0.12200
H 	H 	0.99341 0.98122 0.72890 0.17000
O 	O 	0.98997 0.02281 0.22937 -0.68100
O 	O 	0.99054 0.11616 0.72417 -0.33200
O 	O 	0.99284 0.17428 0.25692 -0.31100
O 	O 	0.99284 0.04683 0.02969 -0.30700
H 	H 	0.99001 0.68613 0.48492 0.07400
O 	O 	0.99951 0.98077 0.74373 -0.71700
Ni	Ni	0.99887 0.94122 0.96407 1.13400
O 	O 	0.99711 0.00268 0.98749 -0.66500
