data_crystal

_cell_length_a 22.69565
_cell_length_b 22.83693
_cell_length_c 27.14370
_cell_angle_alpha 90.00151
_cell_angle_beta  90.00452
_cell_angle_gamma 92.71554

_symmetry_space_group_name_	'P 1'
_symmetry_space_group_name_H-M	'P 1'

loop_
_symmetry_equiv_pos_as_xyz
  x,y,z

loop_
_atom_site_label
_atom_site_type_symbol
_atom_site_fract_x
_atom_site_fract_y
_atom_site_fract_z
_atom_site_charge
C 	C 	0.88116 0.97409 0.00227 -0.03500
C 	C 	0.88711 0.03392 0.99218 -0.04000
C 	C 	0.93131 0.94081 0.00853 0.00800
C 	C 	0.98821 0.96909 0.00571 -0.00300
C 	C 	0.99419 0.03025 0.99680 -0.00600
C 	C 	0.94332 0.06294 0.99044 0.00900
C 	C 	0.03908 0.93636 0.01185 0.00800
C 	C 	0.09529 0.96546 0.01063 -0.03700
C 	C 	0.05106 0.05866 0.99454 0.00800
C 	C 	0.94966 0.12421 0.98237 -0.00300
C 	C 	0.00593 0.15162 0.97896 -0.04500
C 	C 	0.05652 0.11983 0.98533 -0.00300
C 	C 	0.92582 0.87958 0.01757 -0.00400
C 	C 	0.97649 0.84759 0.02300 -0.04500
C 	C 	0.03275 0.87502 0.01947 -0.00400
C 	C 	0.89785 0.16080 0.97977 0.01400
C 	C 	0.88142 0.18524 0.93470 -0.03600
C 	C 	0.83386 0.22182 0.93262 -0.03500
C 	C 	0.80235 0.23400 0.97556 0.02000
C 	C 	0.81821 0.20877 0.02049 -0.03300
C 	C 	0.86643 0.17313 0.02274 -0.03500
C 	C 	0.11472 0.15192 0.98429 0.01300
C 	C 	0.13464 0.18345 0.02591 -0.03400
C 	C 	0.18594 0.21970 0.02334 -0.03400
C 	C 	0.14701 0.15627 0.94023 -0.03600
C 	C 	0.19862 0.19225 0.93775 -0.03400
C 	C 	0.21775 0.22477 0.97911 0.02000
C 	C 	0.86742 0.84783 0.02025 0.01500
C 	C 	0.84635 0.82588 0.06557 -0.03500
C 	C 	0.79508 0.78941 0.06737 -0.03400
C 	C 	0.76386 0.77550 0.02397 0.02300
C 	C 	0.78423 0.79848 0.97879 -0.03600
C 	C 	0.83607 0.83406 0.97688 -0.03700
C 	C 	0.08457 0.83843 0.02143 0.01500
C 	C 	0.11221 0.82199 0.97769 -0.03700
C 	C 	0.16088 0.78687 0.97945 -0.03600
C 	C 	0.18205 0.76775 0.02495 0.02200
C 	C 	0.15383 0.78338 0.06866 -0.03300
C 	C 	0.10531 0.81877 0.06691 -0.03600
C 	C 	0.10118 0.02564 0.00189 -0.03500
H 	H 	0.90569 0.17612 0.90142 0.04900
H 	H 	0.82159 0.24083 0.89774 0.05700
H 	H 	0.79359 0.21741 0.05369 0.05300
H 	H 	0.87915 0.15473 0.05773 0.04900
H 	H 	0.76058 0.78773 0.94507 0.05500
H 	H 	0.85235 0.85024 0.94166 0.04900
H 	H 	0.78003 0.77140 0.10234 0.05700
H 	H 	0.87055 0.83583 0.09918 0.04900
H 	H 	0.09611 0.83668 0.94243 0.04900
H 	H 	0.18234 0.77473 0.94555 0.05200
H 	H 	0.08389 0.83100 0.10081 0.04900
H 	H 	0.16980 0.76850 0.10390 0.05800
H 	H 	0.10977 0.18064 0.05996 0.05100
H 	H 	0.20080 0.24412 0.05560 0.05800
H 	H 	0.13171 0.13241 0.90782 0.04900
H 	H 	0.22336 0.19531 0.90365 0.05500
H 	H 	0.83722 0.95383 0.00497 0.04900
H 	H 	0.84761 0.05750 0.98563 0.04800
H 	H 	0.01038 0.19853 0.97253 0.05500
H 	H 	0.14505 0.04639 0.00109 0.04800
H 	H 	0.13478 0.94173 0.01685 0.05000
H 	H 	0.97209 0.80062 0.02906 0.05200
C 	C 	0.11747 0.02999 0.50154 -0.03700
C 	C 	0.11224 0.96981 0.51026 -0.03500
C 	C 	0.06707 0.06212 0.49268 0.01000
C 	C 	0.01054 0.03299 0.49431 -0.00500
C 	C 	0.00523 0.97188 0.50336 -0.00200
C 	C 	0.05643 0.93992 0.51031 0.00900
C 	C 	0.95934 0.06495 0.48733 0.01000
C 	C 	0.90361 0.03494 0.48701 -0.03800
C 	C 	0.94866 0.94286 0.50556 0.00900
C 	C 	0.05084 0.87856 0.51770 -0.00400
C 	C 	0.99491 0.85048 0.52118 -0.04500
C 	C 	0.94387 0.88179 0.51540 -0.00400
C 	C 	0.07188 0.12318 0.48300 -0.00400
C 	C 	0.02087 0.15455 0.47720 -0.04500
C 	C 	0.96487 0.12651 0.48073 -0.00400
C 	C 	0.10307 0.84264 0.51882 0.01500
C 	C 	0.13065 0.82760 0.47468 -0.03600
C 	C 	0.18024 0.79376 0.47566 -0.03500
C 	C 	0.20243 0.77459 0.52077 0.02100
C 	C 	0.17440 0.78895 0.56489 -0.03300
C 	C 	0.12489 0.82300 0.56392 -0.03600
C 	C 	0.88586 0.84958 0.51897 0.01400
C 	C 	0.86583 0.82790 0.56469 -0.03500
C 	C 	0.81515 0.79072 0.56733 -0.03400
C 	C 	0.85406 0.83479 0.47605 -0.03600
C 	C 	0.80261 0.79879 0.47883 -0.03600
C 	C 	0.78329 0.77608 0.52441 0.02200
C 	C 	0.12989 0.15552 0.48076 0.01500
C 	C 	0.14804 0.19244 0.51973 -0.03500
C 	C 	0.20078 0.22631 0.51633 -0.03300
C 	C 	0.23638 0.22278 0.47427 0.02100
C 	C 	0.21826 0.18593 0.43520 -0.03500
C 	C 	0.16500 0.15263 0.43832 -0.03600
C 	C 	0.91258 0.16268 0.48088 0.01500
C 	C 	0.89780 0.19413 0.43862 -0.03500
C 	C 	0.84866 0.22870 0.43896 -0.03200
C 	C 	0.81279 0.23040 0.48100 0.02100
C 	C 	0.82815 0.19970 0.52351 -0.03600
C 	C 	0.87845 0.16686 0.52374 -0.03700
C 	C 	0.89820 0.97521 0.49760 -0.03500
H 	H 	0.11379 0.84242 0.43972 0.04900
H 	H 	0.20153 0.78250 0.44145 0.05200
H 	H 	0.19114 0.77394 0.59983 0.05900
H 	H 	0.10360 0.83428 0.59812 0.04900
H 	H 	0.24532 0.18317 0.40249 0.05400
H 	H 	0.15097 0.12472 0.40782 0.04900
H 	H 	0.21418 0.25508 0.54646 0.05900
H 	H 	0.12091 0.19536 0.55240 0.05100
H 	H 	0.92448 0.19189 0.40564 0.05000
H 	H 	0.83804 0.25362 0.40644 0.06000
H 	H 	0.89038 0.14378 0.55688 0.04800
H 	H 	0.80125 0.20159 0.55639 0.05100
H 	H 	0.89047 0.83854 0.59794 0.04900
H 	H 	0.80103 0.77277 0.60258 0.05600
H 	H 	0.86964 0.85063 0.44052 0.04900
H 	H 	0.77849 0.78741 0.44547 0.05500
H 	H 	0.16099 0.05148 0.50227 0.05100
H 	H 	0.15188 0.94673 0.51760 0.05100
H 	H 	0.99108 0.80351 0.52743 0.05200
H 	H 	0.85447 0.95428 0.49915 0.04900
H 	H 	0.86413 0.05764 0.47833 0.05000
H 	H 	0.02479 0.20157 0.47127 0.05200
Ni	Ni	0.46355 0.53452 0.04383 1.10600
O 	O 	0.53156 0.48161 0.02959 -0.70300
Ni	Ni	0.51894 0.46493 0.95700 1.10600
O 	O 	0.47962 0.53781 0.11833 -0.31100
O 	O 	0.48071 0.43850 0.12694 -0.35600
O 	O 	0.51946 0.60857 0.04129 -0.35800
Ni	Ni	0.52132 0.40653 0.06444 1.07300
O 	O 	0.42781 0.64523 0.98861 -0.39700
O 	O 	0.43722 0.39135 0.03955 -0.38700
O 	O 	0.58843 0.41321 0.94780 -0.31900
O 	O 	0.45104 0.51778 0.97124 -0.70200
O 	O 	0.39483 0.58745 0.05239 -0.32800
O 	O 	0.50226 0.46187 0.88262 -0.31000
O 	O 	0.50450 0.56139 0.87386 -0.36200
Ni	Ni	0.46327 0.59299 0.93630 1.07200
H 	H 	0.57078 0.50061 0.03637 0.16800
H 	H 	0.41168 0.49894 0.96451 0.16700
C 	C 	0.42572 0.37671 0.99393 0.29700
O 	O 	0.54722 0.60808 0.96085 -0.38800
C 	C 	0.49047 0.49141 0.14492 0.28200
C 	C 	0.59928 0.37363 0.98127 0.28500
C 	C 	0.55969 0.61859 0.00712 0.29300
C 	C 	0.49561 0.50863 0.85532 0.28400
C 	C 	0.38498 0.62717 0.01867 0.28800
O 	O 	0.46383 0.39004 0.95874 -0.35100
O 	O 	0.55725 0.35493 0.01186 -0.38700
Ni	Ni	0.47968 0.53847 0.54204 1.10700
O 	O 	0.54560 0.48249 0.53018 -0.70200
Ni	Ni	0.53679 0.46700 0.45710 1.10600
O 	O 	0.49303 0.54068 0.61688 -0.31200
O 	O 	0.48429 0.44121 0.62446 -0.36000
O 	O 	0.53824 0.61055 0.54083 -0.35700
Ni	Ni	0.52806 0.40773 0.56407 1.07400
O 	O 	0.44923 0.65068 0.48623 -0.39600
O 	O 	0.44591 0.39816 0.53383 -0.39600
O 	O 	0.60406 0.41179 0.45116 -0.33000
O 	O 	0.46993 0.52230 0.46901 -0.70100
O 	O 	0.41261 0.59360 0.54903 -0.32300
O 	O 	0.52632 0.46520 0.38184 -0.30600
O 	O 	0.52514 0.56439 0.37271 -0.35500
Ni	Ni	0.48446 0.59751 0.43460 1.07400
H 	H 	0.58522 0.49941 0.53877 0.17300
H 	H 	0.43030 0.50467 0.46166 0.17400
C 	C 	0.43798 0.38178 0.48813 0.30100
O 	O 	0.56789 0.60989 0.46076 -0.38700
C 	C 	0.49593 0.49312 0.64382 0.28500
C 	C 	0.61041 0.37181 0.48538 0.29100
C 	C 	0.57947 0.61972 0.50731 0.29200
C 	C 	0.51489 0.51138 0.35518 0.28300
C 	C 	0.40497 0.63357 0.51513 0.28800
O 	O 	0.47879 0.39432 0.45498 -0.35200
O 	O 	0.56516 0.35470 0.51326 -0.39500
C 	C 	0.44460 0.51450 0.77523 0.04500
C 	C 	0.49574 0.50227 0.80142 0.00400
C 	C 	0.54777 0.48881 0.77571 -0.09000
C 	C 	0.54664 0.48619 0.72395 0.04500
C 	C 	0.49557 0.49864 0.69777 0.00400
C 	C 	0.44358 0.51219 0.72345 -0.09100
C 	C 	0.38761 0.52582 0.69576 0.77800
H 	H 	0.40567 0.52625 0.79539 0.06300
H 	H 	0.58549 0.47420 0.70379 0.06500
C 	C 	0.60387 0.47534 0.80332 0.77800
F 	F 	0.34040 0.53182 0.72738 -0.44600
F 	F 	0.37250 0.48110 0.66310 -0.44200
F 	F 	0.39656 0.57772 0.67000 -0.43700
F 	F 	0.59563 0.42260 0.82797 -0.43600
F 	F 	0.61819 0.51931 0.83691 -0.44300
F 	F 	0.65135 0.47104 0.77170 -0.44400
C 	C 	0.55197 0.49381 0.22000 0.04400
C 	C 	0.49620 0.49802 0.19858 0.00400
C 	C 	0.44604 0.50480 0.22878 -0.09000
C 	C 	0.45333 0.50854 0.28016 0.04300
C 	C 	0.50910 0.50438 0.30157 0.00500
C 	C 	0.55923 0.49740 0.27138 -0.09100
C 	C 	0.62015 0.49239 0.29392 0.77800
H 	H 	0.58966 0.48739 0.19643 0.06200
H 	H 	0.41567 0.51513 0.30370 0.06600
C 	C 	0.38507 0.50937 0.20628 0.77800
F 	F 	0.66358 0.49030 0.25823 -0.44600
F 	F 	0.62134 0.44170 0.32170 -0.43600
F 	F 	0.63367 0.54025 0.32376 -0.43900
F 	F 	0.37187 0.46137 0.17651 -0.44000
F 	F 	0.38353 0.55997 0.17843 -0.43700
F 	F 	0.34164 0.51121 0.24199 -0.44400
C 	C 	0.25433 0.73856 0.52166 0.01200
C 	C 	0.31144 0.76478 0.52640 0.02900
C 	C 	0.36044 0.73000 0.52466 -0.00000
C 	C 	0.35300 0.66919 0.51799 -0.07800
C 	C 	0.29580 0.64298 0.51338 0.08500
C 	C 	0.24683 0.67775 0.51556 -0.06600
H 	H 	0.40437 0.75025 0.52844 0.06400
H 	H 	0.20287 0.65762 0.51161 0.07000
I 	I 	0.32496 0.85686 0.53552 -0.08600
I 	I 	0.28204 0.55160 0.49994 -0.08200
C 	C 	0.73247 0.73331 0.52647 0.01000
C 	C 	0.67752 0.74936 0.54505 0.02900
C 	C 	0.62869 0.70960 0.54261 -0.00300
C 	C 	0.63350 0.65470 0.52006 -0.08000
C 	C 	0.68897 0.63801 0.50302 0.08200
C 	C 	0.73814 0.67704 0.50690 -0.06600
H 	H 	0.58616 0.72274 0.55566 0.06700
H 	H 	0.78054 0.66426 0.49328 0.07000
I 	I 	0.66568 0.83478 0.57331 -0.08500
I 	I 	0.69977 0.55472 0.47010 -0.06400
C 	C 	0.76080 0.26661 0.48144 0.01200
C 	C 	0.71087 0.25153 0.45233 0.02900
C 	C 	0.66244 0.28716 0.45294 0.00600
C 	C 	0.66220 0.33614 0.48400 -0.08000
C 	C 	0.71083 0.34959 0.51477 0.08200
C 	C 	0.76040 0.31571 0.51245 -0.06700
H 	H 	0.62437 0.27600 0.43010 0.06900
H 	H 	0.79828 0.32684 0.53551 0.06900
I 	I 	0.70528 0.17289 0.41031 -0.08200
I 	I 	0.70905 0.41837 0.56737 -0.13200
C 	C 	0.29242 0.25812 0.47114 0.01300
C 	C 	0.34091 0.24444 0.50063 0.02800
C 	C 	0.38972 0.28398 0.50396 0.00300
C 	C 	0.39135 0.33661 0.47720 -0.08100
C 	C 	0.34536 0.34753 0.44400 0.08700
C 	C 	0.29577 0.30865 0.44167 -0.06800
H 	H 	0.42602 0.27432 0.52813 0.05100
H 	H 	0.25927 0.31839 0.41776 0.07100
I 	I 	0.34208 0.16396 0.53981 -0.08600
I 	I 	0.34954 0.42147 0.39649 -0.08600
C 	C 	0.33274 0.66225 0.02333 -0.07800
C 	C 	0.27565 0.63606 0.01783 0.08400
C 	C 	0.22655 0.67077 0.01986 -0.06600
C 	C 	0.23388 0.73152 0.02673 0.01100
C 	C 	0.29088 0.75760 0.03278 0.02900
C 	C 	0.33994 0.72286 0.03123 -0.00100
H 	H 	0.18270 0.65070 0.01505 0.07000
H 	H 	0.38379 0.74308 0.03572 0.06400
I 	I 	0.26236 0.54489 0.00314 -0.09300
I 	I 	0.30425 0.84952 0.04307 -0.09000
C 	C 	0.61341 0.65463 0.01896 -0.08200
C 	C 	0.66933 0.63710 0.00370 0.08300
C 	C 	0.71847 0.67627 0.00725 -0.06500
C 	C 	0.71248 0.73327 0.02517 0.01000
C 	C 	0.65703 0.75026 0.04190 0.02900
C 	C 	0.60806 0.71061 0.03940 -0.00200
H 	H 	0.76123 0.66280 0.99504 0.06900
H 	H 	0.56520 0.72440 0.05107 0.06500
I 	I 	0.68121 0.55182 0.97505 -0.08200
I 	I 	0.64494 0.83660 0.06794 -0.08600
C 	C 	0.75191 0.27210 0.97334 0.01200
C 	C 	0.75562 0.32866 0.99420 0.03100
C 	C 	0.70546 0.36180 0.99605 -0.00900
C 	C 	0.65201 0.33973 0.97611 -0.07400
C 	C 	0.64931 0.28495 0.95223 0.09300
C 	C 	0.69898 0.25101 0.95164 -0.06900
H 	H 	0.70797 0.40471 0.01321 0.05000
H 	H 	0.69644 0.20814 0.93445 0.06600
I 	I 	0.83684 0.36608 0.02120 -0.07300
I 	I 	0.57200 0.25393 0.91447 -0.03000
C 	C 	0.27274 0.26191 0.97699 0.01400
C 	C 	0.27253 0.32011 0.95966 0.02900
C 	C 	0.32400 0.35641 0.96268 0.00000
C 	C 	0.37538 0.33553 0.98373 -0.08000
C 	C 	0.37590 0.27680 0.99981 0.09200
C 	C 	0.32486 0.24030 0.99591 -0.07200
H 	H 	0.32337 0.40150 0.95032 0.04700
H 	H 	0.32524 0.19546 0.00893 0.06800
I 	I 	0.19461 0.35517 0.93094 -0.07200
I 	I 	0.45244 0.24218 0.03146 -0.09000
