data_crystal

_cell_length_a 40.76805
_cell_length_b 36.48727
_cell_length_c 30.50631
_cell_angle_alpha 89.95504
_cell_angle_beta  89.94790
_cell_angle_gamma 90.59266

_symmetry_space_group_name_	'P 1'
_symmetry_space_group_name_H-M	'P 1'

loop_
_symmetry_equiv_pos_as_xyz
  x,y,z

loop_
_atom_site_label
_atom_site_type_symbol
_atom_site_fract_x
_atom_site_fract_y
_atom_site_fract_z
_atom_site_charge
Zn	Zn	0.47710 0.49361 0.00153 1.22100
C 	C 	0.49689 0.56584 0.97489 0.33100
O 	O 	0.50455 0.49022 0.05403 -0.47700
O 	O 	0.47142 0.57536 0.99840 -0.44500
O 	O 	0.51510 0.54980 0.06876 -0.49200
C 	C 	0.41459 0.52321 0.02049 0.32500
O 	O 	0.43365 0.51223 0.98851 -0.42800
O 	O 	0.42722 0.53184 0.05877 -0.50400
C 	C 	0.52568 0.51640 0.06295 0.33600
O 	O 	0.45047 0.43891 0.02205 -0.34000
Zn	Zn	0.46833 0.55971 0.06324 1.16900
O 	O 	0.50316 0.53085 0.96940 -0.42300
C 	C 	0.46699 0.42378 0.99076 0.30700
O 	O 	0.48641 0.44554 0.96907 -0.38100
Zn	Zn	0.41690 0.06120 0.02624 1.22100
C 	C 	0.43980 0.05019 0.11508 0.35100
O 	O 	0.36942 0.04994 0.02218 -0.45400
O 	O 	0.42884 0.08237 0.12691 -0.43800
O 	O 	0.36394 0.05375 0.09585 -0.49600
C 	C 	0.42939 0.13724 0.04472 0.34400
O 	O 	0.44336 0.10572 0.03609 -0.44200
O 	O 	0.40049 0.13823 0.06357 -0.51300
C 	C 	0.35121 0.04634 0.05749 0.32700
O 	O 	0.41893 0.07638 0.95044 -0.30900
Zn	Zn	0.38468 0.10106 0.10380 1.17400
O 	O 	0.42802 0.03401 0.07996 -0.43800
C 	C 	0.43396 0.04534 0.94639 0.26900
O 	O 	0.43818 0.02730 0.98235 -0.36700
C 	C 	0.55201 0.97844 0.75230 0.14600
C 	C 	0.57819 0.96353 0.77591 -0.09900
H 	H 	0.59808 0.95039 0.75858 0.07200
C 	C 	0.57848 0.96528 0.82180 0.04700
C 	C 	0.55253 0.98204 0.84405 -0.08300
C 	C 	0.52606 0.99647 0.82057 0.08500
C 	C 	0.52600 0.99503 0.77464 -0.10700
H 	H 	0.50553 0.00599 0.75637 0.08000
N 	N 	0.55142 0.97575 0.70530 -0.18100
C 	C 	0.53539 0.94678 0.68590 0.19700
C 	C 	0.53585 0.94272 0.63999 -0.07800
C 	C 	0.55205 0.96919 0.61417 0.06100
C 	C 	0.56914 0.99808 0.63466 -0.07900
C 	C 	0.56800 0.00135 0.68064 0.19700
C 	C 	0.52175 0.91177 0.61990 0.01100
C 	C 	0.52290 0.90772 0.57446 -0.05700
C 	C 	0.53571 0.93613 0.54764 0.01600
C 	C 	0.55205 0.96611 0.56785 -0.02800
C 	C 	0.56966 0.99208 0.54226 0.01600
C 	C 	0.58835 0.02217 0.60929 0.01000
C 	C 	0.58979 0.01822 0.56385 -0.05700
C 	C 	0.53402 0.93429 0.50109 0.01600
C 	C 	0.55166 0.96024 0.47550 -0.02800
C 	C 	0.56806 0.99018 0.49570 0.01600
O 	O 	0.58298 0.02909 0.70008 -0.20100
O 	O 	0.51964 0.92253 0.71038 -0.19000
H 	H 	0.60329 0.04318 0.62481 0.04400
H 	H 	0.60789 0.03416 0.54610 0.04600
H 	H 	0.51091 0.89004 0.63952 0.04600
H 	H 	0.51547 0.88168 0.56069 0.04700
C 	C 	0.58103 0.01849 0.46888 -0.05800
C 	C 	0.58231 0.01434 0.42346 0.01000
C 	C 	0.56807 0.98347 0.40338 -0.08000
C 	C 	0.55163 0.95717 0.42917 0.06100
C 	C 	0.51376 0.90827 0.47952 -0.05700
C 	C 	0.51501 0.90445 0.43405 0.01100
C 	C 	0.53427 0.92848 0.40866 -0.08000
C 	C 	0.56863 0.97935 0.35749 0.19800
N 	N 	0.55214 0.95074 0.33803 -0.18100
C 	C 	0.53522 0.92538 0.36264 0.19700
C 	C 	0.55144 0.94822 0.29102 0.14400
C 	C 	0.52824 0.96810 0.26714 -0.09900
C 	C 	0.52856 0.96725 0.22123 0.04300
C 	C 	0.55177 0.94601 0.19920 -0.08300
C 	C 	0.57490 0.92594 0.22296 0.08400
C 	C 	0.57475 0.92709 0.26891 -0.10700
O 	O 	0.58498 0.00315 0.33310 -0.20200
O 	O 	0.51964 0.89808 0.34311 -0.19500
H 	H 	0.51043 0.98466 0.28430 0.07000
H 	H 	0.59292 0.91210 0.28739 0.07900
H 	H 	0.58848 0.04454 0.48259 0.04600
H 	H 	0.59329 0.03598 0.40384 0.04400
H 	H 	0.49570 0.89232 0.49734 0.04700
H 	H 	0.49994 0.88357 0.41854 0.04500
H 	H 	0.55218 0.94555 0.16365 0.06700
H 	H 	0.55247 0.98292 0.87959 0.07000
Zn	Zn	0.68499 0.86762 0.01383 1.21900
C 	C 	0.66572 0.86071 0.10472 0.31000
O 	O 	0.73230 0.87932 0.01275 -0.46000
O 	O 	0.67545 0.82649 0.10420 -0.44200
O 	O 	0.74157 0.85698 0.08124 -0.49500
C 	C 	0.66812 0.79124 0.00904 0.32400
O 	O 	0.65624 0.82442 0.01198 -0.45400
O 	O 	0.69800 0.78463 0.02241 -0.51000
C 	C 	0.74991 0.87867 0.04876 0.33100
O 	O 	0.68313 0.86755 0.93612 -0.31700
Zn	Zn	0.71747 0.81170 0.07087 1.17100
O 	O 	0.67525 0.88354 0.07382 -0.43400
C 	C 	0.66842 0.89876 0.94050 0.31000
O 	O 	0.66414 0.90946 0.98048 -0.36200
Zn	Zn	0.09533 0.62075 0.97013 1.22600
C 	C 	0.09172 0.59802 0.06108 0.31200
O 	O 	0.08081 0.67224 0.96603 -0.42300
O 	O 	0.12029 0.61362 0.06865 -0.44900
O 	O 	0.08802 0.68189 0.03877 -0.49100
C 	C 	0.16435 0.61276 0.98433 0.34100
O 	O 	0.13686 0.59469 0.97710 -0.44300
O 	O 	0.16365 0.64697 0.99720 -0.50800
C 	C 	0.07576 0.69218 0.00115 0.29500
O 	O 	0.10459 0.62026 0.89323 -0.31300
Zn	Zn	0.13223 0.66336 0.04046 1.16800
O 	O 	0.07478 0.60697 0.02617 -0.43300
C 	C 	0.07838 0.59975 0.89202 0.30800
O 	O 	0.06472 0.59314 0.92945 -0.37200
C 	C 	0.97022 0.52495 0.69173 0.13500
C 	C 	0.99457 0.54329 0.71591 -0.09400
H 	H 	0.01560 0.55521 0.69922 0.07000
C 	C 	0.99175 0.54608 0.76159 0.03500
C 	C 	0.96448 0.53057 0.78301 -0.07000
C 	C 	0.94027 0.51193 0.75892 0.03400
C 	C 	0.94314 0.50921 0.71327 -0.09400
H 	H 	0.92451 0.49476 0.69452 0.06900
N 	N 	0.97303 0.52215 0.64490 -0.18100
C 	C 	0.98945 0.49318 0.62692 0.19800
C 	C 	0.99086 0.48888 0.58109 -0.08000
C 	C 	0.97474 0.51412 0.55404 0.06200
C 	C 	0.95968 0.54477 0.57291 -0.08000
C 	C 	0.95885 0.54821 0.61887 0.19800
C 	C 	0.00902 0.46055 0.56206 0.01000
C 	C 	0.01013 0.45655 0.51660 -0.05800
C 	C 	0.99079 0.47897 0.48918 0.01600
C 	C 	0.97443 0.50922 0.50797 -0.02800
C 	C 	0.95898 0.53548 0.48096 0.01600
C 	C 	0.94671 0.57207 0.54575 0.01100
C 	C 	0.94754 0.56821 0.50027 -0.05700
C 	C 	0.98885 0.47297 0.44314 0.01600
C 	C 	0.97344 0.49929 0.41618 -0.02800
C 	C 	0.95686 0.52934 0.43501 0.01600
O 	O 	0.94404 0.57637 0.63698 -0.19800
O 	O 	0.00363 0.46903 0.65269 -0.20300
H 	H 	0.93688 0.59695 0.55969 0.04500
H 	H 	0.94090 0.59149 0.48040 0.04600
H 	H 	0.02328 0.44226 0.58234 0.04400
H 	H 	0.02736 0.43736 0.50301 0.04600
C 	C 	0.93729 0.55155 0.40768 -0.05700
C 	C 	0.93861 0.54782 0.36220 0.01000
C 	C 	0.95732 0.51997 0.34311 -0.07900
C 	C 	0.97348 0.49472 0.37007 0.06100
C 	C 	0.00060 0.44045 0.42363 -0.05800
C 	C 	0.00191 0.43701 0.37810 0.01000
C 	C 	0.98904 0.46446 0.35105 -0.08000
C 	C 	0.95940 0.51630 0.29727 0.19700
N 	N 	0.97668 0.48801 0.27917 -0.18200
C 	C 	0.99060 0.46166 0.30505 0.19800
C 	C 	0.98111 0.48667 0.23247 0.15500
C 	C 	0.95667 0.47107 0.20583 -0.11200
C 	C 	0.95920 0.47350 0.16009 0.09400
C 	C 	0.98672 0.49048 0.14105 -0.09400
C 	C 	0.01104 0.50639 0.16757 0.09600
C 	C 	0.00839 0.50405 0.21329 -0.11500
O 	O 	0.94524 0.54054 0.27161 -0.19200
O 	O 	0.00593 0.43392 0.28678 -0.19800
H 	H 	0.93515 0.45855 0.22070 0.08000
H 	H 	0.02674 0.51703 0.23394 0.07800
H 	H 	0.91977 0.57038 0.42136 0.04700
H 	H 	0.92420 0.56598 0.34196 0.04500
H 	H 	0.00712 0.41702 0.44331 0.04600
H 	H 	0.01203 0.41234 0.36400 0.04400
H 	H 	0.98833 0.49306 0.10568 0.07800
H 	H 	0.96244 0.53240 0.81839 0.06200
Zn	Zn	0.83588 0.42384 0.95433 1.22300
C 	C 	0.84020 0.44178 0.86254 0.34900
O 	O 	0.79080 0.43203 0.97504 -0.45700
O 	O 	0.82715 0.40979 0.85253 -0.44900
O 	O 	0.76854 0.42987 0.90689 -0.48500
C 	C 	0.84905 0.35108 0.92493 0.34200
O 	O 	0.86176 0.38389 0.93058 -0.45400
O 	O 	0.81752 0.34693 0.91774 -0.50600
C 	C 	0.76690 0.43998 0.94803 0.33300
O 	O 	0.85065 0.40188 0.02471 -0.32300
Zn	Zn	0.79139 0.38532 0.89078 1.17200
O 	O 	0.83640 0.45534 0.90210 -0.42400
C 	C 	0.86557 0.43330 0.02877 0.25200
O 	O 	0.86364 0.45501 0.99537 -0.35800
Zn	Zn	0.02057 0.05760 0.03445 1.22100
C 	C 	0.03820 0.98133 0.03512 0.33400
O 	O 	0.98628 0.05784 0.07986 -0.47400
O 	O 	0.05881 0.99081 0.06638 -0.45600
O 	O 	0.00063 0.00779 0.11898 -0.49800
C 	C 	0.08625 0.06821 0.06385 0.34400
O 	O 	0.06803 0.06237 0.02917 -0.44900
O 	O 	0.07297 0.06620 0.10291 -0.51400
C 	C 	0.97797 0.02765 0.10052 0.33800
O 	O 	0.01896 0.12191 0.03143 -0.33800
Zn	Zn	0.04601 0.02386 0.11843 1.17100
O 	O 	0.01775 0.00536 0.01852 -0.43700
C 	C 	0.00251 0.11749 0.99545 0.30700
O 	O 	0.99773 0.08372 0.98370 -0.37600
C 	C 	0.93032 0.25375 0.90421 -0.07500
C 	C 	0.90701 0.26080 0.94353 0.02000
C 	C 	0.90739 0.19220 0.95988 -0.07800
C 	C 	0.94422 0.20338 0.95900 0.02700
C 	C 	0.95222 0.21996 0.91331 -0.07800
H 	H 	0.91577 0.24895 0.87385 0.04500
H 	H 	0.94619 0.27828 0.89827 0.04800
C 	C 	0.88624 0.29296 0.93552 0.03800
H 	H 	0.90087 0.18026 0.99237 0.05100
H 	H 	0.90242 0.17072 0.93477 0.04900
C 	C 	0.96504 0.17158 0.96866 0.02900
H 	H 	0.94812 0.19900 0.88733 0.04800
H 	H 	0.97853 0.22837 0.91173 0.04900
C 	C 	0.95002 0.23350 0.99415 -0.06600
H 	H 	0.97627 0.24224 0.99421 0.05000
H 	H 	0.94438 0.22247 0.02739 0.03600
C 	C 	0.92819 0.26717 0.98508 -0.06300
H 	H 	0.91214 0.27217 0.01397 0.03500
H 	H 	0.94402 0.29197 0.98079 0.04900
C 	C 	0.88552 0.22594 0.95079 -0.07400
H 	H 	0.86858 0.23008 0.97896 0.04800
H 	H 	0.87008 0.22058 0.92135 0.04500
C 	C 	0.86927 0.31945 0.93019 -0.11200
C 	C 	0.98215 0.14633 0.97929 -0.08600
C 	C 	0.91278 0.49374 0.78182 0.04500
C 	C 	0.91284 0.45568 0.78780 -0.08000
C 	C 	0.88829 0.43866 0.81269 0.04600
C 	C 	0.86335 0.45954 0.83188 -0.13700
C 	C 	0.86236 0.49764 0.82409 0.16500
C 	C 	0.88727 0.51460 0.79946 -0.11000
H 	H 	0.88922 0.40935 0.81827 0.03000
H 	H 	0.88684 0.54396 0.79416 0.08300
H 	H 	0.93239 0.43939 0.77404 0.05700
Br	Br	0.82646 0.52661 0.84476 -0.23100
C 	C 	0.88603 0.44234 0.06703 -0.03600
C 	C 	0.90619 0.41567 0.08586 -0.01700
C 	C 	0.92894 0.42555 0.11815 -0.02000
C 	C 	0.93149 0.46208 0.13215 -0.04600
C 	C 	0.90976 0.48836 0.11535 0.10900
C 	C 	0.88733 0.47846 0.08266 -0.05200
H 	H 	0.94539 0.40510 0.13115 0.04300
H 	H 	0.87127 0.49898 0.06894 0.07300
H 	H 	0.90520 0.38763 0.07423 0.04600
Br	Br	0.91079 0.53801 0.13618 -0.23500
C 	C 	0.04913 0.86176 0.95749 -0.05600
C 	C 	0.04294 0.87211 0.00613 0.00300
C 	C 	0.01746 0.80869 0.01806 -0.11600
C 	C 	0.05186 0.80083 0.99856 0.06000
C 	C 	0.05438 0.81972 0.95303 -0.09000
H 	H 	0.02788 0.87008 0.93700 0.04700
H 	H 	0.07112 0.87670 0.94483 0.04600
C 	C 	0.03884 0.91187 0.01192 0.03400
H 	H 	0.01492 0.79553 0.05085 0.05100
H 	H 	0.99806 0.79670 0.99662 0.06700
C 	C 	0.05777 0.76115 0.99573 0.01700
H 	H 	0.03566 0.80794 0.93039 0.05600
H 	H 	0.07889 0.81463 0.93822 0.05200
C 	C 	0.07813 0.81816 0.02913 -0.09800
H 	H 	0.10315 0.81310 0.01591 0.03600
H 	H 	0.07689 0.80527 0.06221 0.04000
C 	C 	0.07292 0.85986 0.03355 -0.06500
H 	H 	0.06921 0.86682 0.06874 0.03600
H 	H 	0.09545 0.87469 0.02244 0.03700
C 	C 	0.01221 0.85064 0.02251 -0.06100
H 	H 	0.00716 0.85746 0.05743 0.03800
H 	H 	0.99028 0.85874 0.00322 0.03800
C 	C 	0.03752 0.94404 0.02049 -0.11600
C 	C 	0.06484 0.72918 0.99661 -0.08400
C 	C 	0.01776 0.56421 0.78735 0.04300
C 	C 	0.04686 0.54560 0.79657 -0.07400
C 	C 	0.06855 0.55928 0.82820 0.03900
C 	C 	0.06125 0.59160 0.85088 -0.11600
C 	C 	0.03350 0.61197 0.83880 0.15900
C 	C 	0.01181 0.59814 0.80720 -0.10600
H 	H 	0.09002 0.54362 0.83692 0.03000
H 	H 	0.98970 0.61302 0.79939 0.08200
H 	H 	0.05184 0.51960 0.78091 0.05700
Br	Br	0.02422 0.65798 0.86643 -0.22900
C 	C 	0.07618 0.57541 0.09502 -0.06300
C 	C 	0.05248 0.59076 0.12252 -0.00200
C 	C 	0.03277 0.56819 0.14875 -0.02500
C 	C 	0.03646 0.53003 0.14754 -0.04200
C 	C 	0.06187 0.51477 0.12231 0.10300
C 	C 	0.08157 0.53754 0.09602 -0.04100
H 	H 	0.01349 0.58021 0.16836 0.05000
H 	H 	0.10023 0.52566 0.07524 0.06100
H 	H 	0.04836 0.62005 0.12212 0.03800
Br	Br	0.06957 0.46297 0.12283 -0.24400
C 	C 	0.89607 0.93937 0.05939 -0.07500
C 	C 	0.88875 0.97739 0.07979 0.02100
C 	C 	0.83405 0.97711 0.03911 -0.07700
C 	C 	0.83374 0.94058 0.06523 0.02400
C 	C 	0.86378 0.91778 0.05084 -0.07600
H 	H 	0.90969 0.94285 0.02798 0.04500
H 	H 	0.91198 0.92326 0.08177 0.04300
C 	C 	0.91976 0.99734 0.08791 0.03600
H 	H 	0.81277 0.99415 0.04887 0.04900
H 	H 	0.83163 0.97146 0.00339 0.04800
C 	C 	0.80322 0.91957 0.05755 0.03300
H 	H 	0.86196 0.91097 0.01535 0.04300
H 	H 	0.86428 0.89137 0.06915 0.04100
C 	C 	0.83738 0.94968 0.11472 -0.07600
H 	H 	0.83733 0.92396 0.13439 0.04300
H 	H 	0.81617 0.96621 0.12600 0.04600
C 	C 	0.86970 0.97131 0.12327 -0.07500
H 	H 	0.86395 0.99817 0.13860 0.04400
H 	H 	0.88507 0.95589 0.14698 0.04300
C 	C 	0.86645 0.99878 0.04768 -0.07500
H 	H 	0.86063 0.02618 0.06154 0.04500
H 	H 	0.87947 0.00348 0.01605 0.04600
C 	C 	0.94591 0.01211 0.09413 -0.11900
C 	C 	0.77867 0.90137 0.05263 -0.11200
C 	C 	0.60520 0.94817 0.84679 0.04000
C 	C 	0.60698 0.90990 0.84970 -0.07100
C 	C 	0.62943 0.89365 0.87814 0.03900
C 	C 	0.65022 0.91556 0.90410 -0.11500
C 	C 	0.65004 0.95396 0.89881 0.15800
C 	C 	0.62736 0.97009 0.87046 -0.10400
H 	H 	0.62955 0.86410 0.88159 0.03800
H 	H 	0.62660 0.99967 0.86742 0.08000
H 	H 	0.59014 0.89278 0.83115 0.06100
Br	Br	0.68105 0.98470 0.92915 -0.22500
C 	C 	0.64541 0.87418 0.14103 -0.06200
C 	C 	0.65222 0.90859 0.15955 -0.00400
C 	C 	0.63007 0.92436 0.18872 -0.02700
C 	C 	0.60078 0.90602 0.19948 -0.04100
C 	C 	0.59482 0.87046 0.18311 0.10300
C 	C 	0.61724 0.85461 0.15406 -0.04200
H 	H 	0.63500 0.95155 0.20154 0.04500
H 	H 	0.61205 0.82781 0.14027 0.06500
H 	H 	0.67422 0.92362 0.15030 0.04500
Br	Br	0.55580 0.84372 0.19901 -0.24300
C 	C 	0.20158 0.08267 0.01705 -0.08900
C 	C 	0.18651 0.05996 0.05524 0.02300
C 	C 	0.23314 0.01424 0.04668 -0.07600
C 	C 	0.25077 0.05177 0.05262 0.02100
C 	C 	0.23938 0.07784 0.01551 -0.08700
H 	H 	0.19072 0.07375 0.98528 0.06000
H 	H 	0.19580 0.11221 0.02127 0.04500
C 	C 	0.15064 0.06432 0.05720 0.03200
H 	H 	0.24074 0.99495 0.07299 0.04200
H 	H 	0.24023 0.00181 0.01478 0.04300
C 	C 	0.28670 0.04767 0.05192 0.02900
H 	H 	0.24658 0.06663 0.98300 0.05900
H 	H 	0.25163 0.10511 0.01896 0.04000
C 	C 	0.24004 0.06826 0.09723 -0.07400
H 	H 	0.25228 0.09533 0.10242 0.03200
H 	H 	0.24774 0.05006 0.12460 0.03800
C 	C 	0.20234 0.07307 0.09876 -0.07600
H 	H 	0.19205 0.05716 0.12683 0.03800
H 	H 	0.19659 0.10243 0.10461 0.04100
C 	C 	0.19535 0.01905 0.04822 -0.07600
H 	H 	0.18493 0.00201 0.07524 0.03800
H 	H 	0.18438 0.00886 0.01706 0.04200
C 	C 	0.12126 0.06692 0.05981 -0.12300
C 	C 	0.31619 0.04592 0.05331 -0.13400
C 	C 	0.45148 0.03524 0.90611 -0.03800
C 	C 	0.47354 0.06015 0.88665 -0.01300
C 	C 	0.49652 0.04788 0.85603 -0.02100
C 	C 	0.49742 0.01070 0.84441 -0.04300
C 	C 	0.47333 0.98641 0.86088 0.10900
C 	C 	0.45057 0.99873 0.89176 -0.04700
H 	H 	0.51468 0.06688 0.84305 0.04300
H 	H 	0.43310 0.97955 0.90602 0.07400
H 	H 	0.47425 0.08849 0.89722 0.04900
Br	Br	0.47211 0.93597 0.84303 -0.22800
C 	C 	0.50532 0.98956 0.19613 0.04300
C 	C 	0.47349 0.97641 0.18820 -0.08000
C 	C 	0.45201 0.99659 0.16220 0.04700
C 	C 	0.46213 0.03020 0.14406 -0.14000
C 	C 	0.49403 0.04370 0.15245 0.16200
C 	C 	0.51546 0.02333 0.17851 -0.11100
H 	H 	0.42753 0.98601 0.15593 0.02900
H 	H 	0.54013 0.03349 0.18451 0.08100
H 	H 	0.46553 0.95032 0.20171 0.05900
Br	Br	0.50931 0.08886 0.12685 -0.24500
C 	C 	0.43063 0.29938 0.98500 -0.07400
C 	C 	0.46614 0.31172 0.99622 0.04300
C 	C 	0.46832 0.26074 0.05335 -0.06500
C 	C 	0.45831 0.24074 0.01048 -0.00700
C 	C 	0.42605 0.25782 0.99335 -0.04300
H 	H 	0.41271 0.31478 0.00529 0.03700
H 	H 	0.42512 0.30555 0.95003 0.04700
C 	C 	0.46935 0.35165 0.98973 0.02500
H 	H 	0.49158 0.24924 0.06628 0.04300
H 	H 	0.44920 0.25644 0.07900 0.04100
C 	C 	0.45245 0.20155 0.01970 0.04100
H 	H 	0.40592 0.25348 0.01759 0.02900
H 	H 	0.41832 0.24412 0.96237 0.04200
C 	C 	0.48559 0.24755 0.97574 -0.05700
H 	H 	0.47901 0.23358 0.94450 0.04500
H 	H 	0.50913 0.23575 0.98723 0.04900
C 	C 	0.49021 0.28948 0.96731 -0.08600
H 	H 	0.51597 0.29770 0.97477 0.05100
H 	H 	0.48585 0.29552 0.93204 0.04800
C 	C 	0.47289 0.30234 0.04500 -0.09500
H 	H 	0.49835 0.31075 0.05396 0.04600
H 	H 	0.45595 0.31780 0.06668 0.04800
C 	C 	0.46946 0.38466 0.98813 -0.08600
C 	C 	0.44393 0.17099 0.02993 -0.11500
C 	C 	0.28021 0.60087 0.98067 -0.07100
C 	C 	0.25622 0.56853 0.99023 0.03700
C 	C 	0.30041 0.52455 0.96410 -0.05700
C 	C 	0.31766 0.54782 0.00013 -0.00700
C 	C 	0.31623 0.58873 0.98649 -0.04400
H 	H 	0.27660 0.61106 0.94661 0.04600
H 	H 	0.27516 0.62415 0.00320 0.03000
C 	C 	0.22217 0.58116 0.98549 0.03400
H 	H 	0.30094 0.49499 0.97308 0.04700
H 	H 	0.31370 0.52763 0.93240 0.04500
C 	C 	0.35211 0.53704 0.00620 0.03500
H 	H 	0.32982 0.59310 0.95521 0.04200
H 	H 	0.32832 0.60620 0.01179 0.02500
C 	C 	0.29831 0.54289 0.04360 -0.06500
H 	H 	0.31002 0.55937 0.07013 0.03800
H 	H 	0.29879 0.51367 0.05413 0.04000
C 	C 	0.26224 0.55504 0.03778 -0.09300
H 	H 	0.24547 0.53164 0.04553 0.04600
H 	H 	0.25677 0.57731 0.06156 0.04100
C 	C 	0.26419 0.53676 0.95826 -0.08400
H 	H 	0.24743 0.51305 0.96448 0.05200
H 	H 	0.26021 0.54569 0.92379 0.04900
C 	C 	0.19514 0.59414 0.98373 -0.11000
C 	C 	0.38056 0.52993 0.01226 -0.11900
C 	C 	0.61727 0.46182 0.99388 -0.04600
C 	C 	0.62029 0.49469 0.02594 0.01000
C 	C 	0.67728 0.47242 0.04680 -0.09100
C 	C 	0.67859 0.47589 0.99608 0.03600
C 	C 	0.65144 0.45081 0.97639 -0.08500
H 	H 	0.60567 0.43791 0.01075 0.03100
H 	H 	0.60117 0.46910 0.96578 0.04500
C 	C 	0.58738 0.50442 0.04194 0.03700
H 	H 	0.69645 0.49030 0.06191 0.04700
H 	H 	0.68254 0.44373 0.05684 0.04400
C 	C 	0.71088 0.46470 0.97919 0.03300
H 	H 	0.65613 0.42165 0.98495 0.04700
H 	H 	0.65163 0.45283 0.93996 0.04600
C 	C 	0.67098 0.51619 0.98357 -0.06500
H 	H 	0.67160 0.51954 0.94730 0.04600
H 	H 	0.69004 0.53491 0.99743 0.05000
C 	C 	0.63667 0.52726 0.00115 -0.10000
H 	H 	0.63933 0.55128 0.02340 0.04400
H 	H 	0.62093 0.53592 0.97326 0.05800
C 	C 	0.64299 0.48348 0.06435 -0.07000
H 	H 	0.64578 0.50665 0.08782 0.04200
H 	H 	0.63191 0.46006 0.08274 0.04200
C 	C 	0.55961 0.51071 0.05296 -0.12400
C 	C 	0.73672 0.45408 0.96502 -0.10800
C 	C 	0.60083 0.63406 0.98616 -0.06500
C 	C 	0.56629 0.64748 0.97258 0.03400
C 	C 	0.57721 0.70662 0.01493 -0.08300
C 	C 	0.60674 0.70381 0.98314 0.03400
C 	C 	0.62461 0.66720 0.99238 -0.06500
H 	H 	0.59925 0.61814 0.01726 0.03300
H 	H 	0.61075 0.61538 0.96066 0.04300
C 	C 	0.54308 0.61648 0.96821 0.03200
H 	H 	0.56375 0.73256 0.00896 0.04500
H 	H 	0.58596 0.70733 0.04950 0.04400
C 	C 	0.62902 0.73538 0.99002 0.03000
H 	H 	0.63437 0.66706 0.02645 0.03100
H 	H 	0.64594 0.66434 0.96986 0.04500
C 	C 	0.59343 0.70271 0.93546 -0.07800
H 	H 	0.61415 0.70056 0.91185 0.04800
H 	H 	0.58033 0.72857 0.92788 0.05200
C 	C 	0.56961 0.66952 0.92924 -0.07800
H 	H 	0.54516 0.67957 0.91871 0.04900
H 	H 	0.57896 0.65150 0.90269 0.04700
C 	C 	0.55353 0.67364 0.00877 -0.10100
H 	H 	0.52875 0.68385 0.99993 0.05600
H 	H 	0.55099 0.65864 0.04043 0.04000
C 	C 	0.52263 0.59240 0.96877 -0.11200
C 	C 	0.64687 0.76112 0.99776 -0.09100
