data_crystal

_cell_length_a 17.55783
_cell_length_b 15.34507
_cell_length_c 43.83446
_cell_angle_alpha 90.48847
_cell_angle_beta  91.08708
_cell_angle_gamma 111.01720

_symmetry_space_group_name_	'P 1'
_symmetry_space_group_name_H-M	'P 1'

loop_
_symmetry_equiv_pos_as_xyz
  x,y,z

loop_
_atom_site_label
_atom_site_type_symbol
_atom_site_fract_x
_atom_site_fract_y
_atom_site_fract_z
_atom_site_charge
C 	C 	0.00028 0.63787 0.97970 -0.07100
Ni	Ni	0.00917 0.97715 0.74790 1.11000
C 	C 	0.01545 0.24259 0.28703 0.27600
H 	H 	0.01621 0.78759 0.28672 0.07200
H 	H 	0.01373 0.42314 0.98889 0.05500
F 	F 	0.02494 0.05607 0.84643 -0.43100
C 	C 	0.02722 0.40455 0.30520 -0.13000
O 	O 	0.03136 0.07185 0.78332 -0.32200
C 	C 	0.02993 0.56983 0.99058 -0.04700
H 	H 	0.03055 0.71045 0.98644 0.09300
C 	C 	0.03392 0.58247 0.45333 -0.04200
F 	F 	0.04226 0.82556 0.20827 -0.46000
C 	C 	0.03602 0.60590 0.48441 -0.03500
C 	C 	0.03913 0.15912 0.77947 0.26900
H 	H 	0.04666 0.54274 0.32363 0.07500
C 	C 	0.04980 0.15234 0.84782 0.78100
Ni	Ni	0.05089 0.14560 0.23193 1.11200
C 	C 	0.05180 0.01656 0.18101 0.21000
C 	C 	0.05372 0.32722 0.30655 0.06400
F 	F 	0.05653 0.18039 0.87817 -0.43000
O 	O 	0.05891 0.51344 0.07639 -0.40100
C 	C 	0.05976 0.39920 0.11381 -0.13200
O 	O 	0.06362 0.20253 0.27562 -0.34700
Ni	Ni	0.72685 0.35990 0.88122 1.10100
O 	O 	0.63295 0.26517 0.85675 -0.70700
Ni	Ni	0.53753 0.27820 0.87719 1.10600
O 	O 	0.80946 0.33194 0.85445 -0.34900
O 	O 	0.75309 0.17557 0.86428 -0.40100
O 	O 	0.71553 0.45185 0.84974 -0.38900
Ni	Ni	0.62605 0.13676 0.86075 1.06800
O 	O 	0.74874 0.49681 0.94346 -0.39300
O 	O 	0.62213 0.13729 0.90750 -0.39700
O 	O 	0.45137 0.19275 0.84797 -0.32200
O 	O 	0.63171 0.35594 0.90608 -0.70100
O 	O 	0.81969 0.46376 0.90379 -0.36100
O 	O 	0.45127 0.32171 0.89655 -0.32000
O 	O 	0.53760 0.47304 0.89680 -0.39900
Ni	Ni	0.64780 0.48476 0.91759 1.07700
H 	H 	0.63280 0.28140 0.83494 0.16800
H 	H 	0.63356 0.32261 0.92510 0.15500
C 	C 	0.55902 0.14339 0.92177 0.27200
O 	O 	0.71854 0.56590 0.88425 -0.37700
C 	C 	0.80441 0.24551 0.84904 0.28400
C 	C 	0.45114 0.10829 0.84114 0.25800
C 	C 	0.72412 0.53848 0.85611 0.31900
C 	C 	0.47014 0.40850 0.90612 0.26400
C 	C 	0.81592 0.48886 0.93249 0.31200
O 	O 	0.50564 0.16996 0.90708 -0.33000
O 	O 	0.50096 0.07367 0.85582 -0.35500
Ni	Ni	0.52442 0.45990 0.54403 1.11100
O 	O 	0.62666 0.47227 0.52001 -0.69800
Ni	Ni	0.68815 0.42330 0.54992 1.11200
O 	O 	0.49522 0.55749 0.51948 -0.35400
O 	O 	0.62532 0.65899 0.52550 -0.38600
O 	O 	0.45276 0.35767 0.51373 -0.35900
Ni	Ni	0.70048 0.59493 0.50780 1.08200
O 	O 	0.40113 0.27837 0.56937 -0.37700
O 	O 	0.78738 0.64171 0.54250 -0.36700
O 	O 	0.80120 0.46421 0.53002 -0.32000
O 	O 	0.57842 0.39265 0.57068 -0.69600
O 	O 	0.42379 0.43524 0.56948 -0.32200
O 	O 	0.72452 0.34669 0.58122 -0.27800
O 	O 	0.61085 0.21709 0.57096 -0.32900
Ni	Ni	0.51138 0.26064 0.56983 1.09300
H 	H 	0.61234 0.43038 0.50184 0.17000
H 	H 	0.58487 0.41784 0.59183 0.22800
C 	C 	0.77504 0.61979 0.57139 0.29600
O 	O 	0.51290 0.25112 0.52372 -0.38300
C 	C 	0.55194 0.63813 0.51335 0.27800
C 	C 	0.81614 0.49580 0.50180 0.31700
C 	C 	0.46663 0.28136 0.50632 0.27800
C 	C 	0.67790 0.26012 0.58727 0.26700
C 	C 	0.39012 0.35213 0.58158 0.27900
O 	O 	0.72615 0.53646 0.57920 -0.32200
O 	O 	0.76731 0.53010 0.48692 -0.39000
Ni	Ni	0.98816 0.09198 0.69245 1.10200
O 	O 	0.07384 0.05236 0.71398 -0.71800
O 	O 	0.07080 0.16832 0.66144 -0.36400
O 	O 	0.15639 0.25299 0.69939 -0.39000
O 	O 	0.95853 0.97962 0.66183 -0.34200
Ni	Ni	0.15939 0.16011 0.73321 1.07400
O 	O 	0.80853 0.98865 0.67307 -0.38700
O 	O 	0.08101 0.20625 0.75669 -0.38000
O 	O 	0.10130 0.93917 0.76549 -0.30300
O 	O 	0.92545 0.02885 0.72917 -0.70200
O 	O 	0.90268 0.13624 0.67339 -0.36400
O 	O 	0.93045 0.87979 0.77568 -0.29000
O 	O 	0.80553 0.86716 0.75576 -0.37700
Ni	Ni	0.82385 0.93423 0.71415 1.08300
H 	H 	0.09630 0.01517 0.70077 0.16600
H 	H 	0.91326 0.07454 0.74235 0.15900
O 	O 	0.88963 0.86441 0.69498 -0.38000
C 	C 	0.14258 0.22772 0.67050 0.29400
C 	C 	0.17357 0.00485 0.77126 0.25100
C 	C 	0.92085 0.88983 0.66800 0.29400
C 	C 	0.85357 0.82904 0.76902 0.29600
C 	C 	0.82763 0.07869 0.66855 0.27900
O 	O 	0.18190 0.09397 0.77060 -0.35800
Ni	Ni	0.16877 0.75607 0.37973 1.10300
O 	O 	0.25151 0.84827 0.35222 -0.69900
Ni	Ni	0.35605 0.86102 0.37362 1.11100
O 	O 	0.07461 0.75952 0.35208 -0.34500
O 	O 	0.11774 0.91865 0.35720 -0.38000
O 	O 	0.18324 0.65526 0.35221 -0.37900
Ni	Ni	0.24381 0.97119 0.35082 1.09400
O 	O 	0.17800 0.65180 0.44499 -0.39300
O 	O 	0.25765 0.99337 0.39696 -0.37100
O 	O 	0.43056 0.94112 0.34192 -0.31600
O 	O 	0.27197 0.78482 0.40426 -0.69800
O 	O 	0.08796 0.65469 0.40588 -0.36700
O 	O 	0.45416 0.84036 0.39443 -0.32200
O 	O 	0.38155 0.68546 0.39599 -0.40200
Ni	Ni	0.27478 0.66564 0.41863 1.08300
H 	H 	0.25025 0.82285 0.33130 0.20600
H 	H 	0.26972 0.82376 0.42207 0.18700
C 	C 	0.32896 0.01354 0.41068 0.27300
O 	O 	0.20388 0.56134 0.38928 -0.38800
C 	C 	0.06770 0.83952 0.34480 0.27900
C 	C 	0.41904 0.01604 0.33134 0.26400
C 	C 	0.17599 0.57227 0.36201 0.32100
C 	C 	0.44660 0.75711 0.40420 0.30900
C 	C 	0.10289 0.63250 0.43403 0.28400
O 	O 	0.38302 0.98070 0.40002 -0.32600
O 	O 	0.36543 0.04768 0.34403 -0.36200
Ni	Ni	0.30556 0.77952 0.05970 1.10800
O 	O 	0.22490 0.66171 0.07883 -0.69900
Ni	Ni	0.23163 0.56169 0.05051 1.10500
O 	O 	0.28297 0.86269 0.09274 -0.30800
O 	O 	0.14634 0.80054 0.08140 -0.39200
O 	O 	0.39236 0.75856 0.08770 -0.35200
Ni	Ni	0.11236 0.65613 0.07838 1.07500
O 	O 	0.41241 0.82042 0.99751 -0.39600
O 	O 	0.10741 0.66730 0.03215 -0.40000
O 	O 	0.15987 0.45114 0.07458 -0.35800
O 	O 	0.29825 0.68107 0.02829 -0.69700
O 	O 	0.39328 0.89487 0.04129 -0.30000
O 	O 	0.26959 0.47375 0.02411 -0.34400
O 	O 	0.39974 0.57069 0.03210 -0.41100
Ni	Ni	0.40956 0.70011 0.01623 1.08200
H 	H 	0.24234 0.65210 0.09975 0.17700
H 	H 	0.26711 0.69013 0.01031 0.17500
C 	C 	0.09596 0.59478 0.01426 0.28500
O 	O 	0.48714 0.77268 0.05098 -0.35900
C 	C 	0.20721 0.85229 0.09922 0.29500
C 	C 	0.09441 0.45702 0.08745 0.29900
C 	C 	0.46816 0.77609 0.07972 0.29900
C 	C 	0.34727 0.49781 0.01789 0.31800
C 	C 	0.42451 0.89705 0.01381 0.32600
O 	O 	0.13438 0.53674 0.01997 -0.35600
Ni	Ni	0.88798 0.00279 0.19912 1.09300
O 	O 	0.80248 0.04331 0.21946 -0.71400
Ni	Ni	0.86238 0.10609 0.25751 1.11200
O 	O 	0.80818 0.94136 0.16325 -0.33900
O 	O 	0.71317 0.85088 0.19574 -0.38100
O 	O 	0.92869 0.12549 0.17439 -0.35000
Ni	Ni	0.70835 0.93599 0.23219 1.08600
O 	O 	0.07134 0.10450 0.18941 -0.32500
O 	O 	0.77506 0.87469 0.25698 -0.37300
O 	O 	0.77213 0.14928 0.27257 -0.29800
O 	O 	0.94450 0.05098 0.24001 -0.68400
O 	O 	0.97502 0.96054 0.18070 -0.29000
O 	O 	0.93767 0.19284 0.29073 -0.27600
H 	H 	0.78560 0.08681 0.20686 0.17700
H 	H 	0.95151 0.00010 0.25202 0.17400
C 	C 	0.81624 0.91424 0.28180 0.30800
O 	O 	0.98892 0.22318 0.21472 -0.31900
C 	C 	0.73313 0.88430 0.16837 0.29000
C 	C 	0.69629 0.08879 0.27200 0.26000
C 	C 	0.96477 0.21103 0.18604 0.26100
O 	O 	0.82647 0.00104 0.28878 -0.33400
O 	O 	0.68211 0.99828 0.26978 -0.33500
C 	C 	0.97604 0.34734 0.11465 0.07300
C 	C 	0.94351 0.29254 0.13988 -0.06200
C 	C 	0.99399 0.29056 0.16493 0.08400
C 	C 	0.07703 0.35291 0.16570 -0.15300
C 	C 	0.11002 0.40142 0.13913 0.11100
H 	H 	0.87957 0.24823 0.13941 0.08000
H 	H 	0.17445 0.44335 0.13843 0.05600
H 	H 	0.93649 0.34716 0.09535 0.04700
C 	C 	0.12913 0.37241 0.19488 0.79700
F 	F 	0.14775 0.29509 0.20252 -0.49700
F 	F 	0.20195 0.44665 0.19162 -0.43300
F 	F 	0.08825 0.39558 0.21842 -0.41800
C 	C 	0.67113 0.85667 0.14345 -0.09400
C 	C 	0.62143 0.76253 0.13923 0.03600
C 	C 	0.55410 0.73712 0.11904 -0.04300
C 	C 	0.53438 0.80552 0.10322 0.04000
C 	C 	0.58303 0.90125 0.10799 -0.12500
C 	C 	0.65304 0.92549 0.12728 0.09000
H 	H 	0.51736 0.66394 0.11556 0.06700
H 	H 	0.69166 0.99807 0.13068 0.06900
H 	H 	0.63460 0.70892 0.15182 0.05700
C 	C 	0.56072 0.97719 0.09256 0.80500
F 	F 	0.60737 0.06510 0.10387 -0.45800
F 	F 	0.57351 0.97486 0.06163 -0.45300
F 	F 	0.47966 0.96361 0.09736 -0.43100
C 	C 	0.19114 0.91120 0.12285 -0.10700
C 	C 	0.17238 0.98902 0.11428 0.11600
C 	C 	0.13201 0.02788 0.13434 -0.11700
C 	C 	0.11029 0.98951 0.16324 0.12200
C 	C 	0.13827 0.91872 0.17348 -0.14800
C 	C 	0.17691 0.87832 0.15274 0.11900
H 	H 	0.11333 0.08438 0.12675 0.09600
H 	H 	0.19177 0.81821 0.15926 0.06200
H 	H 	0.18423 0.01553 0.09133 0.03300
C 	C 	0.12312 0.88283 0.20579 0.79800
F 	F 	0.17190 0.83240 0.21356 -0.41300
F 	F 	0.14049 0.95669 0.22637 -0.45100
C 	C 	0.62999 0.11782 0.28237 -0.06200
C 	C 	0.63178 0.14977 0.31250 0.04200
C 	C 	0.55872 0.13134 0.32785 -0.03300
C 	C 	0.48410 0.08022 0.31312 0.05000
C 	C 	0.48177 0.06866 0.28108 -0.12600
C 	C 	0.55551 0.08608 0.26588 0.08800
H 	H 	0.56068 0.14624 0.35213 0.07700
H 	H 	0.55448 0.06583 0.24208 0.05400
H 	H 	0.68933 0.17877 0.32505 0.09000
C 	C 	0.40116 0.02662 0.26376 0.77600
F 	F 	0.40967 0.05072 0.23331 -0.42300
F 	F 	0.37356 0.93042 0.26572 -0.42300
F 	F 	0.34365 0.05871 0.27585 -0.45300
C 	C 	0.13520 0.48922 0.34224 -0.09300
C 	C 	0.16071 0.41268 0.34335 0.04500
C 	C 	0.12022 0.33241 0.32582 -0.04200
C 	C 	0.06808 0.48473 0.32348 0.10600
H 	H 	0.14061 0.27373 0.32724 0.07300
H 	H 	0.21218 0.41527 0.35784 0.04600
C 	C 	0.95233 0.39960 0.28626 0.80400
F 	F 	0.94673 0.48687 0.28325 -0.41900
F 	F 	0.95525 0.36516 0.25723 -0.42200
F 	F 	0.88296 0.34194 0.30033 -0.43400
C 	C 	0.99163 0.83814 0.33016 -0.06900
C 	C 	0.97552 0.81283 0.29930 0.05800
C 	C 	0.91026 0.82647 0.28404 -0.04000
C 	C 	0.86094 0.86607 0.29955 0.03300
C 	C 	0.86880 0.87658 0.33174 -0.11400
C 	C 	0.93703 0.86721 0.34658 0.09400
H 	H 	0.90233 0.81375 0.25963 0.08800
H 	H 	0.94824 0.88367 0.37074 0.07900
C 	C 	0.80694 0.90116 0.35020 0.79000
F 	F 	0.80197 0.86480 0.37921 -0.43400
F 	F 	0.83041 0.99714 0.35274 -0.41600
F 	F 	0.73000 0.86483 0.33657 -0.42900
C 	C 	0.42139 0.22254 0.48064 -0.03100
C 	C 	0.45340 0.23800 0.45134 -0.01600
C 	C 	0.42053 0.17115 0.42815 0.01900
C 	C 	0.35518 0.08823 0.43407 -0.08600
C 	C 	0.32018 0.07476 0.46310 0.12900
C 	C 	0.35343 0.14202 0.48626 -0.04700
H 	H 	0.44741 0.18248 0.40580 0.05300
H 	H 	0.32850 0.12993 0.50893 0.07200
H 	H 	0.50594 0.29993 0.44684 0.05000
Br	Br	0.23032 0.96279 0.47209 -0.20700
C 	C 	0.96643 0.56694 0.50181 0.04500
C 	C 	0.89409 0.50524 0.48815 -0.08800
C 	C 	0.89520 0.47315 0.45802 0.14500
C 	C 	0.96468 0.51279 0.44058 -0.03300
H 	H 	0.96679 0.59058 0.52520 0.07700
H 	H 	0.96433 0.49061 0.41702 0.09400
H 	H 	0.09010 0.65776 0.49470 0.06900
Br	Br	0.80146 0.37702 0.44020 -0.17200
C 	C 	0.54207 0.68595 0.48569 -0.04900
C 	C 	0.56185 0.65761 0.45739 -0.02100
C 	C 	0.53756 0.68894 0.43040 0.02800
C 	C 	0.49343 0.74901 0.43147 -0.10600
C 	C 	0.48044 0.78444 0.46002 0.12800
C 	C 	0.50428 0.75200 0.48697 -0.04000
H 	H 	0.54884 0.66220 0.40866 0.06200
H 	H 	0.49074 0.77570 0.50886 0.09300
H 	H 	0.59232 0.60752 0.45630 0.01400
Br	Br	0.42703 0.87350 0.46292 -0.22100
C 	C 	0.77386 0.11038 0.64946 -0.10000
C 	C 	0.75295 0.18539 0.65957 0.04600
C 	C 	0.72031 0.23248 0.63916 -0.04800
C 	C 	0.70897 0.20597 0.60826 0.05900
C 	C 	0.72877 0.12889 0.59782 -0.13000
C 	C 	0.75795 0.07930 0.61905 0.10100
H 	H 	0.70527 0.29115 0.64726 0.10400
H 	H 	0.77263 0.01976 0.61165 0.06000
H 	H 	0.76501 0.20954 0.68310 0.04100
C 	C 	0.71887 0.09929 0.56434 0.79200
F 	F 	0.75818 0.03767 0.55805 -0.44600
F 	F 	0.63692 0.05559 0.55695 -0.44300
F 	F 	0.75185 0.17607 0.54599 -0.43200
C 	C 	0.20515 0.27304 0.64794 -0.10000
C 	C 	0.18416 0.26888 0.61678 0.03700
C 	C 	0.24493 0.30080 0.59520 -0.04400
C 	C 	0.32730 0.33782 0.60445 0.03900
C 	C 	0.34879 0.34924 0.63591 -0.13900
C 	C 	0.28722 0.31516 0.65746 0.09300
H 	H 	0.22820 0.29347 0.57113 0.07000
H 	H 	0.30327 0.31821 0.68153 0.05100
H 	H 	0.12089 0.23867 0.60920 0.05900
C 	C 	0.43761 0.39175 0.64639 0.78800
F 	F 	0.47518 0.47606 0.63219 -0.45600
F 	F 	0.44524 0.40832 0.67760 -0.44600
F 	F 	0.47740 0.33150 0.63907 -0.50000
C 	C 	0.89248 0.82241 0.64217 -0.07600
C 	C 	0.86106 0.84809 0.61548 0.03400
C 	C 	0.82411 0.78190 0.59253 -0.03600
C 	C 	0.81996 0.68927 0.59535 0.03800
C 	C 	0.85829 0.66455 0.62110 -0.10900
C 	C 	0.89019 0.73054 0.64510 0.08900
H 	H 	0.79697 0.80229 0.57273 0.08300
H 	H 	0.91358 0.71060 0.66591 0.10400
H 	H 	0.86234 0.91878 0.61301 0.07000
C 	C 	0.86534 0.56897 0.62330 0.78800
F 	F 	0.92611 0.57034 0.64411 -0.42000
F 	F 	0.79225 0.50468 0.63277 -0.43000
F 	F 	0.88483 0.54075 0.59538 -0.43800
C 	C 	0.99154 0.47644 0.98083 0.01800
C 	C 	0.92245 0.45081 0.96152 0.01600
C 	C 	0.89068 0.51792 0.95177 -0.09900
C 	C 	0.93098 0.61232 0.96035 0.16300
H 	H 	0.89266 0.37830 0.95460 0.04500
Br	Br	0.89386 0.70759 0.94519 -0.17300
C 	C 	0.54046 0.10624 0.95276 -0.02100
C 	C 	0.58454 0.05564 0.96608 -0.04700
C 	C 	0.55173 0.99669 0.99033 0.06100
C 	C 	0.47398 0.98640 0.00086 -0.05600
C 	C 	0.43664 0.04866 0.99099 0.13600
C 	C 	0.47071 0.10948 0.96725 -0.04500
H 	H 	0.58268 0.95169 0.99876 0.06500
H 	H 	0.43966 0.15413 0.95866 0.09600
H 	H 	0.64123 0.05690 0.95641 0.06400
Br	Br	0.33407 0.04344 0.00695 -0.16800
C 	C 	0.42836 0.42809 0.93282 -0.02900
C 	C 	0.43138 0.51915 0.93877 -0.04700
C 	C 	0.40185 0.54054 0.96608 0.03900
C 	C 	0.36939 0.47130 0.98792 -0.13500
C 	C 	0.36220 0.37876 0.98138 0.15800
C 	C 	0.39143 0.35735 0.95385 -0.06600
H 	H 	0.40547 0.61149 0.97053 -0.04100
H 	H 	0.38775 0.28645 0.94931 0.10100
H 	H 	0.45798 0.57384 0.92248 0.05800
Br	Br	0.31566 0.28162 0.01017 -0.17100
C 	C 	0.86963 0.23034 0.83203 -0.09700
C 	C 	0.88251 0.25898 0.80173 0.03100
C 	C 	0.94394 0.24388 0.78526 -0.05200
C 	C 	0.99386 0.20095 0.79905 0.04600
C 	C 	0.98807 0.18345 0.83083 -0.11300
C 	C 	0.92268 0.19340 0.84665 0.09300
H 	H 	0.94963 0.26051 0.76123 0.06400
H 	H 	0.91392 0.17395 0.87041 0.07200
H 	H 	0.84322 0.29040 0.79064 0.04700
F 	F 	0.12636 0.19094 0.83540 -0.42600
C 	C 	0.23603 0.98152 0.78834 -0.05700
C 	C 	0.31188 0.99951 0.77491 0.04400
C 	C 	0.38348 0.03154 0.79288 -0.07200
C 	C 	0.37939 0.04306 0.82447 0.05000
C 	C 	0.30271 0.00610 0.83865 -0.12800
C 	C 	0.23104 0.97626 0.82022 0.11700
H 	H 	0.44209 0.05500 0.78195 0.04600
H 	H 	0.17202 0.95908 0.83062 0.11100
H 	H 	0.31607 0.99971 0.75028 0.03400
C 	C 	0.29676 0.00615 0.87312 0.77100
F 	F 	0.30763 0.09516 0.88360 -0.41700
F 	F 	0.22133 0.94588 0.88224 -0.40600
F 	F 	0.35574 0.97744 0.88640 -0.42100
C 	C 	0.75239 0.60891 0.83216 -0.09300
C 	C 	0.73144 0.68868 0.83299 0.04100
C 	C 	0.76227 0.75835 0.81155 -0.03700
C 	C 	0.81409 0.74913 0.78874 0.04800
C 	C 	0.83196 0.66639 0.78657 -0.12400
C 	C 	0.80241 0.59764 0.80892 0.10200
H 	H 	0.74770 0.82112 0.81315 0.06700
H 	H 	0.81951 0.53646 0.80864 0.07600
H 	H 	0.69202 0.69736 0.85055 0.04400
C 	C 	0.88436 0.65265 0.76117 0.78800
F 	F 	0.96469 0.70988 0.76656 -0.43100
F 	F 	0.88066 0.56109 0.75930 -0.43100
F 	F 	0.85785 0.67458 0.73335 -0.44500
