data_crystal

_cell_length_a 24.49654
_cell_length_b 20.78653
_cell_length_c 21.81807
_cell_angle_alpha 81.29063
_cell_angle_beta  94.64761
_cell_angle_gamma 86.38168

_symmetry_space_group_name_	'P 1'
_symmetry_space_group_name_H-M	'P 1'

loop_
_symmetry_equiv_pos_as_xyz
  x,y,z

loop_
_atom_site_label
_atom_site_type_symbol
_atom_site_fract_x
_atom_site_fract_y
_atom_site_fract_z
_atom_site_charge
Mn	Mn	0.87529 0.94705 0.94914 1.28000
Mn	Mn	0.04275 0.91102 0.16915 1.27500
Mn	Mn	0.11140 0.02409 0.92439 1.28900
Mn	Mn	0.98237 0.98986 0.85296 1.27600
Mn	Mn	0.98758 0.03847 0.01890 1.25800
O 	O 	0.12197 0.94269 0.87825 -0.39600
O 	O 	0.96414 0.96648 0.16117 -0.55200
O 	O 	0.93746 0.91016 0.89296 -0.54700
O 	O 	0.09334 0.05771 0.13884 -0.42700
Mn	Mn	0.13422 0.99767 0.08764 1.28000
O 	O 	0.04245 0.92669 0.82118 -0.38200
O 	O 	0.98183 0.84343 0.13490 -0.52700
O 	O 	0.85974 0.99926 0.08602 -0.41300
O 	O 	0.05218 0.96092 0.07404 -0.68000
O 	O 	0.91200 0.02632 0.89616 -0.55200
O 	O 	0.82100 0.01107 0.98653 -0.35700
O 	O 	0.92280 0.10011 0.96143 -0.35000
O 	O 	0.03978 0.80732 0.06900 -0.37800
O 	O 	0.08223 0.97832 0.22074 -0.39700
O 	O 	0.03193 0.12796 0.01186 -0.36900
O 	O 	0.00717 0.83473 0.93298 -0.34300
O 	O 	0.94739 0.93838 0.02016 -0.72800
O 	O 	0.02953 0.99136 0.94388 -0.67500
O 	O 	0.11426 0.07273 0.00629 -0.56800
C 	C 	0.96015 0.03188 0.15544 0.27400
O 	O 	0.15213 0.95800 0.00459 -0.54800
O 	O 	0.10683 0.85220 0.14566 -0.42300
O 	O 	0.85776 0.83677 0.08473 -0.39100
C 	C 	0.04790 0.09775 0.81626 0.29700
C 	C 	0.90402 0.08610 0.90717 0.29300
C 	C 	0.99851 0.79730 0.10110 0.25300
Mn	Mn	0.90784 0.91132 0.10785 1.26600
O 	O 	0.11840 0.85984 0.99428 -0.29700
C 	C 	0.81602 0.00439 0.04662 0.22700
C 	C 	0.08576 0.12781 0.00914 0.29200
O 	O 	0.99665 0.08462 0.81646 -0.41300
C 	C 	0.95885 0.84988 0.90105 0.27400
C 	C 	0.09085 0.03947 0.19842 0.28100
C 	C 	0.82581 0.83904 0.03237 0.21800
C 	C 	0.16049 0.89502 0.00358 0.19900
O 	O 	0.17684 0.91819 0.14989 -0.41400
C 	C 	0.15687 0.86130 0.16560 0.28800
O 	O 	0.07335 0.10697 0.86835 -0.40200
Mn	Mn	0.03421 0.89260 0.00337 1.26500
C 	C 	0.09597 0.93375 0.82537 0.26800
O 	O 	0.84692 0.85371 0.97811 -0.35600
O 	O 	0.95424 0.06806 0.09969 -0.37300
H 	H 	0.95267 0.89213 0.01523 0.02500
H 	H 	0.07267 0.92798 0.05577 -0.02500
Mn	Mn	0.85460 0.43815 0.54704 1.27800
Mn	Mn	0.06696 0.48477 0.42661 1.27500
Mn	Mn	0.05847 0.48499 0.70436 1.27600
Mn	Mn	0.92595 0.44246 0.69612 1.27400
Mn	Mn	0.01214 0.39556 0.56738 1.27600
O 	O 	0.01255 0.55779 0.74095 -0.38900
O 	O 	0.00982 0.41044 0.41762 -0.55200
O 	O 	0.87081 0.49694 0.62119 -0.55800
O 	O 	0.18398 0.44431 0.53508 -0.39700
Mn	Mn	0.12897 0.51272 0.56739 1.27700
O 	O 	0.92778 0.51899 0.75357 -0.38200
O 	O 	0.98349 0.53241 0.40249 -0.54900
O 	O 	0.90298 0.36223 0.43717 -0.42600
O 	O 	0.04889 0.49022 0.52387 -0.71000
O 	O 	0.89745 0.37893 0.62962 -0.55200
O 	O 	0.83170 0.36170 0.49655 -0.39700
O 	O 	0.96497 0.31489 0.59757 -0.37800
O 	O 	0.94891 0.60790 0.45920 -0.37000
O 	O 	0.13229 0.41331 0.45449 -0.41000
O 	O 	0.08050 0.34814 0.62794 -0.38500
O 	O 	0.90085 0.59535 0.58425 -0.36700
O 	O 	0.93642 0.45893 0.51541 -0.69700
O 	O 	0.99179 0.46803 0.63519 -0.71200
O 	O 	0.11684 0.44160 0.64846 -0.55100
C 	C 	0.02206 0.34860 0.44107 0.28900
O 	O 	0.08291 0.55919 0.63166 -0.55500
O 	O 	0.10052 0.57593 0.40838 -0.40000
O 	O 	0.85815 0.52345 0.39313 -0.39900
C 	C 	0.02421 0.35124 0.75353 0.28200
C 	C 	0.92144 0.32111 0.62818 0.29100
C 	C 	0.97033 0.59391 0.40863 0.28600
Mn	Mn	0.92714 0.45581 0.41411 1.27800
O 	O 	0.01531 0.62866 0.57495 -0.36500
C 	C 	0.85134 0.35484 0.44312 0.27900
C 	C 	0.12263 0.37895 0.64620 0.29000
O 	O 	0.97024 0.35967 0.74871 -0.41400
C 	C 	0.86431 0.56064 0.61247 0.29400
C 	C 	0.17994 0.42755 0.47885 0.25900
C 	C 	0.81618 0.52420 0.42711 0.26500
C 	C 	0.05796 0.61791 0.61662 0.29400
O 	O 	0.12586 0.59896 0.50472 -0.40700
C 	C 	0.13652 0.59727 0.44719 0.25900
O 	O 	0.05463 0.39793 0.76693 -0.41000
Mn	Mn	0.97171 0.54837 0.54919 1.27200
C 	C 	0.97208 0.54442 0.77657 0.24800
O 	O 	0.82455 0.52305 0.48763 -0.41000
O 	O 	0.03747 0.33288 0.50097 -0.35800
H 	H 	0.92537 0.50580 0.50599 -0.00000
H 	H 	0.03696 0.53620 0.50770 0.02900
Mn	Mn	0.50189 0.85264 0.46201 1.28200
Mn	Mn	0.49949 0.14610 0.39779 1.28100
Mn	Mn	0.54107 0.01631 0.66443 1.27800
Mn	Mn	0.53536 0.86706 0.62057 1.28100
Mn	Mn	0.57962 0.99667 0.49636 1.27600
O 	O 	0.46565 0.98996 0.69303 -0.40400
O 	O 	0.53574 0.06661 0.35592 -0.55100
O 	O 	0.47003 0.85474 0.55200 -0.55900
O 	O 	0.61984 0.15606 0.49658 -0.40800
Mn	Mn	0.54990 0.15103 0.54665 1.27500
O 	O 	0.48249 0.88031 0.69226 -0.40100
O 	O 	0.43551 0.08235 0.37503 -0.54500
O 	O 	0.53364 0.93515 0.31518 -0.40500
O 	O 	0.51477 0.08295 0.48894 -0.72500
O 	O 	0.56699 0.84676 0.53433 -0.56100
O 	O 	0.55806 0.85246 0.39495 -0.41200
O 	O 	0.63275 0.91010 0.49944 -0.37000
O 	O 	0.38294 0.04201 0.45194 -0.37400
O 	O 	0.56926 0.20049 0.40551 -0.41500
O 	O 	0.64950 0.02458 0.54920 -0.36900
O 	O 	0.40061 0.93086 0.55590 -0.36500
O 	O 	0.49978 0.95949 0.45239 -0.69100
O 	O 	0.52913 0.96980 0.58027 -0.71200
O 	O 	0.59683 0.07340 0.61211 -0.56400
C 	C 	0.58866 0.04959 0.35968 0.28600
O 	O 	0.49595 0.10634 0.61417 -0.54100
O 	O 	0.43807 0.20125 0.43157 -0.40500
O 	O 	0.40310 0.94578 0.35002 -0.40200
C 	C 	0.63639 0.91013 0.68841 0.28100
C 	C 	0.61758 0.85231 0.52073 0.30700
C 	C 	0.38866 0.08270 0.40108 0.28800
Mn	Mn	0.47560 0.99415 0.35140 1.27800
O 	O 	0.41410 0.07042 0.57830 -0.37100
C 	C 	0.54427 0.87266 0.33568 0.26500
C 	C 	0.64472 0.04867 0.60077 0.28800
O 	O 	0.61765 0.87078 0.65143 -0.41300
C 	C 	0.41852 0.86921 0.55806 0.29300
C 	C 	0.61660 0.17791 0.43647 0.27900
C 	C 	0.40401 0.88212 0.36637 0.25600
C 	C 	0.44137 0.11237 0.60627 0.27200
O 	O 	0.49668 0.23295 0.50653 -0.42100
C 	C 	0.44672 0.22831 0.48184 0.27700
O 	O 	0.60257 0.94724 0.71456 -0.41700
Mn	Mn	0.45098 0.00928 0.51974 1.27700
C 	C 	0.44766 0.93218 0.69066 0.26800
O 	O 	0.42068 0.85587 0.42391 -0.40700
O 	O 	0.61714 0.03607 0.41436 -0.37400
H 	H 	0.46128 0.95727 0.46203 -0.00300
H 	H 	0.47821 0.09585 0.50034 0.03500
Mn	Mn	0.57150 0.37411 0.14383 1.27800
Mn	Mn	0.39140 0.55256 0.99448 1.28200
Mn	Mn	0.51115 0.35553 0.87087 1.27900
Mn	Mn	0.60490 0.31481 0.00398 1.26000
Mn	Mn	0.45532 0.36653 0.02404 1.26000
O 	O 	0.59055 0.37031 0.84576 -0.40800
O 	O 	0.38080 0.48218 0.07592 -0.55500
O 	O 	0.62361 0.38379 0.06615 -0.56100
O 	O 	0.32655 0.46705 0.89357 -0.41400
Mn	Mn	0.40401 0.47914 0.86516 1.28000
O 	O 	0.65058 0.36323 0.93305 -0.37300
O 	O 	0.45986 0.56984 0.06214 -0.54100
O 	O 	0.44072 0.39384 0.17807 -0.42100
O 	O 	0.44076 0.47148 0.96312 -0.65000
O 	O 	0.56553 0.29599 0.08988 -0.57100
O 	O 	0.52122 0.33505 0.21554 -0.39800
O 	O 	0.47734 0.27375 0.08546 -0.37800
O 	O 	0.52654 0.57911 0.99328 -0.32500
O 	O 	0.31063 0.53946 0.95930 -0.38900
O 	O 	0.40861 0.30989 0.96761 -0.35500
O 	O 	0.62273 0.48245 0.00531 -0.39200
O 	O 	0.50970 0.43257 0.07482 -0.73000
O 	O 	0.52941 0.37483 0.96677 -0.69300
O 	O 	0.42353 0.37429 0.87784 -0.55300
C 	C 	0.35627 0.42640 0.07145 0.26900
O 	O 	0.48631 0.45960 0.84121 -0.55600
O 	O 	0.42977 0.61130 0.92758 -0.40900
O 	O 	0.52130 0.51776 0.19168 -0.41100
C 	C 	0.55466 0.22192 0.92560 0.27700
C 	C 	0.52940 0.25383 0.09897 0.29900
C 	C 	0.50663 0.59461 0.04322 0.22300
Mn	Mn	0.45914 0.48421 0.13456 1.26800
O 	O 	0.54895 0.52080 0.88333 -0.36400
C 	C 	0.47255 0.36178 0.22484 0.26900
C 	C 	0.39392 0.33248 0.90888 0.29200
O 	O 	0.57371 0.22770 0.98224 -0.37700
C 	C 	0.64782 0.43665 0.04891 0.29100
C 	C 	0.29888 0.51867 0.90646 0.27900
C 	C 	0.57226 0.49230 0.20680 0.27300
C 	C 	0.51965 0.50665 0.83418 0.28800
O 	O 	0.40334 0.58124 0.83369 -0.39900
C 	C 	0.40802 0.62612 0.87012 0.28100
O 	O 	0.50926 0.25554 0.90050 -0.40200
Mn	Mn	0.53434 0.48086 0.97832 1.28900
C 	C 	0.62806 0.39609 0.87904 0.25600
O 	O 	0.59784 0.46078 0.16838 -0.41600
O 	O 	0.38605 0.37172 0.07506 -0.38400
H 	H 	0.53381 0.46880 0.07046 0.03600
H 	H 	0.46877 0.49771 0.94408 -0.03100
C 	C 	0.62603 0.17953 0.23803 0.09000
N 	N 	0.57277 0.19143 0.24929 -0.08600
N 	N 	0.53300 0.19664 0.20291 -0.06400
C 	C 	0.54662 0.19587 0.14408 0.02400
N 	N 	0.59629 0.16581 0.13743 -0.06300
N 	N 	0.63700 0.16217 0.18262 -0.07400
C 	C 	0.66647 0.18782 0.40493 0.05400
N 	N 	0.69067 0.13489 0.38556 -0.04700
N 	N 	0.69197 0.13492 0.32449 -0.06100
C 	C 	0.67033 0.18853 0.28432 0.09700
N 	N 	0.66869 0.24639 0.30622 -0.07700
N 	N 	0.66777 0.24597 0.36732 -0.05300
C 	C 	0.59596 0.71210 0.26922 0.10500
N 	N 	0.63296 0.75576 0.27999 -0.06200
N 	N 	0.61578 0.81449 0.29140 -0.04400
C 	C 	0.56130 0.83054 0.29251 0.04700
N 	N 	0.52465 0.79083 0.27172 -0.07000
N 	N 	0.54171 0.73196 0.26085 -0.06800
C 	C 	0.60501 0.52258 0.25159 0.05200
N 	N 	0.57991 0.53992 0.30040 -0.05600
N 	N 	0.58209 0.60049 0.31276 -0.06600
C 	C 	0.61276 0.64266 0.27938 0.10900
N 	N 	0.64919 0.61885 0.24335 -0.05700
N 	N 	0.64602 0.55844 0.23058 -0.04100
C 	C 	0.41044 0.70105 0.65678 0.09700
N 	N 	0.38946 0.75351 0.67981 -0.06200
N 	N 	0.37505 0.80948 0.64162 -0.05100
C 	C 	0.38611 0.81547 0.58137 0.03800
N 	N 	0.39300 0.75962 0.55659 -0.06300
N 	N 	0.40726 0.70311 0.59407 -0.07300
C 	C 	0.50780 0.55712 0.77885 0.03500
N 	N 	0.47934 0.54180 0.72753 -0.06900
N 	N 	0.44944 0.58802 0.68742 -0.07200
C 	C 	0.44718 0.65085 0.69752 0.10200
N 	N 	0.47998 0.66718 0.74513 -0.06800
N 	N 	0.51023 0.62098 0.78496 -0.04400
C 	C 	0.33426 0.23395 0.77913 0.10500
N 	N 	0.31966 0.29881 0.77189 -0.06800
N 	N 	0.32957 0.33140 0.81909 -0.06600
C 	C 	0.35413 0.29948 0.87423 0.04100
N 	N 	0.35634 0.23334 0.88493 -0.04300
N 	N 	0.34617 0.20079 0.83769 -0.06300
C 	C 	0.41140 0.14981 0.64578 0.04200
N 	N 	0.35909 0.13677 0.65678 -0.04000
N 	N 	0.33348 0.16515 0.69833 -0.06200
C 	C 	0.35899 0.20861 0.72868 0.10500
N 	N 	0.41078 0.22280 0.71667 -0.07500
N 	N 	0.43683 0.19340 0.67611 -0.06900
C 	C 	0.78412 0.12306 0.67140 0.10600
N 	N 	0.78881 0.07173 0.63997 -0.06300
N 	N 	0.74421 0.04385 0.62144 -0.04200
C 	C 	0.69386 0.06603 0.63460 0.03100
N 	N 	0.68978 0.11382 0.67021 -0.06800
N 	N 	0.73411 0.14269 0.68742 -0.06800
C 	C 	0.89500 0.26318 0.65287 0.03600
N 	N 	0.85452 0.26809 0.69108 -0.06600
N 	N 	0.82236 0.21938 0.70307 -0.06600
C 	C 	0.82949 0.16475 0.67664 0.10400
N 	N 	0.87324 0.15750 0.64323 -0.06300
N 	N 	0.90561 0.20613 0.63151 -0.04200
C 	C 	0.66859 0.70221 0.43316 0.10800
N 	N 	0.69238 0.75958 0.42341 -0.05700
N 	N 	0.68137 0.80577 0.45752 -0.03700
C 	C 	0.64596 0.79612 0.50209 0.03000
N 	N 	0.62526 0.73703 0.51468 -0.06900
N 	N 	0.63622 0.69084 0.48053 -0.07100
C 	C 	0.76392 0.55334 0.39681 0.05600
N 	N 	0.71798 0.53908 0.42517 -0.06000
N 	N 	0.67993 0.58665 0.42837 -0.06400
C 	C 	0.68725 0.64868 0.40249 0.10700
N 	N 	0.72574 0.65861 0.36140 -0.05900
N 	N 	0.76331 0.61067 0.35778 -0.04500
C 	C 	0.31746 0.29296 0.57165 0.11000
N 	N 	0.36740 0.31601 0.58168 -0.06600
N 	N 	0.40861 0.29841 0.55002 -0.05500
C 	C 	0.40050 0.25806 0.50718 0.04000
N 	N 	0.34993 0.23784 0.49524 -0.04800
N 	N 	0.30900 0.25496 0.52706 -0.05600
C 	C 	0.17745 0.34744 0.64658 0.03600
N 	N 	0.18281 0.28954 0.62574 -0.04400
N 	N 	0.23076 0.26763 0.60998 -0.05800
C 	C 	0.27389 0.30501 0.61039 0.11100
N 	N 	0.27006 0.36085 0.63549 -0.06600
N 	N 	0.22255 0.38112 0.65469 -0.06400
C 	C 	0.25244 0.71529 0.37184 0.11000
N 	N 	0.24558 0.65678 0.35305 -0.06600
N 	N 	0.20850 0.61865 0.37738 -0.06200
C 	C 	0.17831 0.63758 0.42195 0.04600
N 	N 	0.18739 0.69436 0.44302 -0.04600
N 	N 	0.22362 0.73298 0.41792 -0.05900
C 	C 	0.36557 0.84681 0.33288 0.04700
N 	N 	0.31179 0.86821 0.32684 -0.04700
N 	N 	0.27367 0.82550 0.33263 -0.05800
C 	C 	0.28827 0.76053 0.34092 0.10900
N 	N 	0.34092 0.74007 0.33499 -0.06800
N 	N 	0.37915 0.78292 0.33052 -0.06600
C 	C 	0.75583 0.41983 0.19864 0.09700
N 	N 	0.72500 0.47737 0.18133 -0.06100
N 	N 	0.69776 0.49122 0.12469 -0.04600
C 	C 	0.69914 0.44678 0.08501 0.02700
N 	N 	0.73791 0.39563 0.09835 -0.06800
N 	N 	0.76491 0.38135 0.15493 -0.07200
C 	C 	0.81424 0.35724 0.38578 0.02100
N 	N 	0.83120 0.32462 0.34033 -0.05200
N 	N 	0.81176 0.34374 0.28101 -0.06800
C 	C 	0.77487 0.39635 0.26508 0.09700
N 	N 	0.75454 0.42580 0.31089 -0.06800
N 	N 	0.77368 0.40617 0.37040 -0.06900
C 	C 	0.32031 0.37110 0.39601 0.10900
N 	N 	0.27192 0.34477 0.38406 -0.06100
N 	N 	0.22765 0.36150 0.41172 -0.05100
C 	C 	0.23044 0.40460 0.45275 0.05300
N 	N 	0.27901 0.43037 0.46536 -0.05900
N 	N 	0.32325 0.41396 0.43734 -0.06400
C 	C 	0.44801 0.34340 0.28392 0.03600
N 	N 	0.45346 0.38268 0.32824 -0.06800
N 	N 	0.41422 0.38887 0.36658 -0.06800
C 	C 	0.36857 0.35532 0.36224 0.10600
N 	N 	0.36581 0.31106 0.32243 -0.06300
N 	N 	0.40509 0.30490 0.28420 -0.05700
C 	C 	0.20650 0.65250 0.77070 0.10600
N 	N 	0.19728 0.64920 0.83153 -0.05800
N 	N 	0.22528 0.60435 0.87460 -0.04400
C 	C 	0.26266 0.56060 0.85810 0.02900
N 	N 	0.27308 0.56495 0.79758 -0.07500
N 	N 	0.24545 0.61025 0.75453 -0.07300
C 	C 	0.08426 0.67222 0.63807 0.04100
N 	N 	0.13478 0.68407 0.61969 -0.05600
N 	N 	0.17554 0.69087 0.66193 -0.06700
C 	C 	0.16566 0.68781 0.72260 0.10500
N 	N 	0.11268 0.69513 0.73615 -0.06000
N 	N 	0.07212 0.68775 0.69385 -0.04800
C 	C 	0.74813 0.56909 0.72930 0.10100
N 	N 	0.73226 0.57592 0.66739 -0.06900
N 	N 	0.76898 0.58727 0.62590 -0.05800
C 	C 	0.82252 0.59140 0.64532 0.03400
N 	N 	0.83545 0.59753 0.70580 -0.05200
N 	N 	0.79937 0.58417 0.74777 -0.06200
C 	C 	0.65738 0.44864 0.84566 0.06300
N 	N 	0.63364 0.48291 0.79107 -0.05900
N 	N 	0.66139 0.52537 0.75640 -0.06500
C 	C 	0.71427 0.53420 0.77448 0.10700
N 	N 	0.73787 0.50111 0.82997 -0.06100
N 	N 	0.70973 0.45904 0.86520 -0.04500
C 	C 	0.67843 0.74671 0.05547 0.10800
N 	N 	0.72539 0.72383 0.09199 -0.06200
N 	N 	0.77259 0.75129 0.08257 -0.04700
C 	C 	0.77497 0.80202 0.03558 0.03900
N 	N 	0.72810 0.82471 0.99854 -0.01900
N 	N 	0.68065 0.79735 0.00816 -0.08300
C 	C 	0.53455 0.64554 0.07215 0.05000
N 	N 	0.58065 0.62549 0.11119 -0.05700
N 	N 	0.62586 0.65839 0.10702 -0.05800
C 	C 	0.62563 0.71465 0.06605 0.10700
N 	N 	0.57726 0.73986 0.03361 -0.06800
N 	N 	0.53214 0.70659 0.03795 -0.05900
C 	C 	0.69115 0.16924 0.84657 0.10100
N 	N 	0.65975 0.22384 0.81999 -0.07000
N 	N 	0.61008 0.23577 0.83832 -0.07700
C 	C 	0.59190 0.19515 0.88577 0.01700
N 	N 	0.62073 0.13721 0.90720 -0.04500
N 	N 	0.66961 0.12423 0.88750 -0.06300
C 	C 	0.85694 0.12560 0.87261 0.03900
N 	N 	0.83468 0.17753 0.89533 -0.03900
N 	N 	0.78198 0.19785 0.87994 -0.06200
C 	C 	0.75003 0.16580 0.84268 0.11000
N 	N 	0.77356 0.11773 0.81603 -0.07000
N 	N 	0.82675 0.09975 0.82886 -0.07000
C 	C 	0.32369 0.78927 0.88346 0.10800
N 	N 	0.37919 0.78871 0.89050 -0.06000
N 	N 	0.40974 0.74140 0.87176 -0.04300
C 	C 	0.38522 0.69245 0.84828 0.04600
N 	N 	0.33102 0.70167 0.82890 -0.05500
N 	N 	0.30015 0.74831 0.84810 -0.06000
C 	C 	0.21407 0.86999 0.98957 0.09700
N 	N 	0.22651 0.80459 0.99887 -0.04600
N 	N 	0.26453 0.77890 0.96766 -0.06300
C 	C 	0.29145 0.81796 0.92671 0.11100
N 	N 	0.28251 0.88363 0.92133 -0.06200
N 	N 	0.24445 0.90936 0.95267 -0.06600
C 	C 	0.21399 0.34011 0.05403 0.11000
N 	N 	0.22840 0.38135 0.00446 -0.07600
N 	N 	0.26805 0.42182 0.01191 -0.06600
C 	C 	0.29557 0.42172 0.06883 0.03700
N 	N 	0.27534 0.38726 0.11925 -0.05000
N 	N 	0.23652 0.34564 0.11195 -0.06300
C 	C 	0.11561 0.18543 0.02387 0.00800
N 	N 	0.15445 0.17837 0.07325 -0.06500
N 	N 	0.18433 0.22804 0.08389 -0.06300
C 	C 	0.17752 0.28600 0.04452 0.07300
N 	N 	0.13904 0.29290 0.99470 -0.03300
N 	N 	0.10829 0.24362 0.98484 -0.02100
C 	C 	0.79154 0.83322 0.75818 0.10400
N 	N 	0.75242 0.84161 0.79753 -0.06500
N 	N 	0.70404 0.87316 0.77609 -0.05000
C 	C 	0.69324 0.89700 0.71464 0.04700
N 	N 	0.73314 0.89066 0.67573 -0.05000
N 	N 	0.78188 0.86008 0.69735 -0.06100
C 	C 	0.93778 0.80789 0.85840 0.04300
N 	N 	0.93714 0.82993 0.79645 -0.06100
N 	N 	0.89117 0.82970 0.75934 -0.06800
C 	C 	0.84628 0.80423 0.78320 0.10500
N 	N 	0.85257 0.76746 0.84054 -0.05800
N 	N 	0.89834 0.76869 0.87748 -0.05000
C 	C 	0.22643 0.89634 0.73144 0.11100
N 	N 	0.21434 0.85050 0.77856 -0.06000
N 	N 	0.16633 0.85564 0.80278 -0.04400
C 	C 	0.12944 0.90721 0.78103 0.06500
N 	N 	0.13808 0.94657 0.72767 -0.05200
N 	N 	0.18634 0.94201 0.70374 -0.05600
C 	C 	0.39031 0.92348 0.70235 0.06300
N 	N 	0.34931 0.96302 0.66752 -0.04500
N 	N 	0.29692 0.95313 0.67541 -0.05500
C 	C 	0.28405 0.90365 0.71865 0.11300
N 	N 	0.32515 0.86544 0.75470 -0.05800
N 	N 	0.37756 0.87559 0.74712 -0.04400
C 	C 	0.23795 0.16237 0.32501 0.11200
N 	N 	0.25151 0.16060 0.38671 -0.05600
N 	N 	0.30304 0.14400 0.41074 -0.03900
C 	C 	0.34216 0.12822 0.37376 0.04200
N 	N 	0.33028 0.13982 0.31112 -0.06000
N 	N 	0.27881 0.15749 0.28699 -0.06500
C 	C 	0.11036 0.08309 0.24076 0.05000
N 	N 	0.12286 0.14396 0.21666 -0.05000
N 	N 	0.15948 0.17466 0.24759 -0.06300
C 	C 	0.18312 0.14618 0.30431 0.10800
N 	N 	0.16392 0.09022 0.33225 -0.05800
N 	N 	0.12865 0.05847 0.30053 -0.04500
C 	C 	0.68417 0.98517 0.15004 0.10500
N 	N 	0.72089 0.93337 0.15111 -0.06600
N 	N 	0.75974 0.93641 0.11176 -0.07900
C 	C 	0.76321 0.99144 0.07044 0.03300
N 	N 	0.72327 0.04073 0.06526 -0.05700
N 	N 	0.68409 0.03751 0.10440 -0.06700
C 	C 	0.61223 0.02900 0.30539 0.04000
N 	N 	0.66212 0.99524 0.31200 -0.04000
N 	N 	0.68359 0.97696 0.26259 -0.06000
C 	C 	0.65560 0.99148 0.20532 0.11100
N 	N 	0.60440 0.02191 0.19935 -0.06500
N 	N 	0.58289 0.04018 0.24877 -0.06200
C 	C 	0.10667 0.20270 0.68620 0.11800
N 	N 	0.05277 0.22058 0.66907 -0.05200
N 	N 	0.02420 0.25653 0.70246 -0.05000
C 	C 	0.05028 0.28924 0.74350 0.04700
N 	N 	0.10515 0.27592 0.75801 -0.05000
N 	N 	0.13271 0.23239 0.73073 -0.06000
C 	C 	0.08117 0.07067 0.77232 -0.03100
N 	N 	0.05809 0.07051 0.71321 -0.04500
N 	N 	0.08440 0.09875 0.66623 -0.05500
C 	C 	0.12566 0.13534 0.68188 0.11700
N 	N 	0.16018 0.10617 0.73105 -0.06000
N 	N 	0.13670 0.07601 0.77938 -0.07200
C 	C 	0.95899 0.66122 0.99934 0.15000
N 	N 	0.92083 0.71163 0.99929 -0.04500
N 	N 	0.92565 0.75102 0.04247 -0.08500
C 	C 	0.96758 0.74017 0.08851 0.03100
N 	N 	0.99767 0.68135 0.09579 -0.05400
N 	N 	0.99619 0.64477 0.05000 -0.09300
C 	C 	0.96861 0.57594 0.83476 0.06000
N 	N 	0.01511 0.58934 0.86781 -0.04800
N 	N 	0.01217 0.61461 0.92071 -0.04600
C 	C 	0.96260 0.62794 0.94227 0.10100
N 	N 	0.91610 0.61500 0.90897 -0.05300
N 	N 	0.91909 0.58879 0.85662 -0.04500
C 	C 	0.07333 0.71436 0.31967 0.10200
N 	N 	0.05202 0.66717 0.29052 -0.06800
N 	N 	0.01231 0.63353 0.31464 -0.05600
C 	C 	0.99349 0.64579 0.36885 0.01400
N 	N 	0.01012 0.69828 0.39344 -0.03700
N 	N 	0.04977 0.73201 0.36932 -0.06300
C 	C 	0.17859 0.82092 0.22281 0.03200
N 	N 	0.16345 0.84120 0.27557 -0.06100
N 	N 	0.13288 0.80416 0.31207 -0.07300
C 	C 	0.12229 0.74405 0.29920 0.09800
N 	N 	0.15151 0.71806 0.25732 -0.06400
N 	N 	0.18250 0.75579 0.22202 -0.05300
C 	C 	0.97056 0.15182 0.29230 0.11000
N 	N 	0.93434 0.16822 0.24094 -0.06300
N 	N 	0.92598 0.12616 0.20112 -0.04700
C 	C 	0.95406 0.06632 0.21053 0.04300
N 	N 	0.98718 0.04788 0.26448 -0.06500
N 	N 	0.99543 0.09004 0.30471 -0.06300
C 	C 	0.01039 0.29659 0.40189 0.05600
N 	N 	0.02437 0.23226 0.42427 -0.04100
N 	N 	0.01245 0.18614 0.38942 -0.05100
C 	C 	0.98563 0.20287 0.33139 0.10200
N 	N 	0.97171 0.26713 0.30927 -0.06500
N 	N 	0.98413 0.31312 0.34371 -0.07600
