data_crystal

_cell_length_a 20.09799
_cell_length_b 21.00663
_cell_length_c 41.68979
_cell_angle_alpha 60.76740
_cell_angle_beta  118.98776
_cell_angle_gamma 133.30258

_symmetry_space_group_name_	'P 1'
_symmetry_space_group_name_H-M	'P 1'

loop_
_symmetry_equiv_pos_as_xyz
  x,y,z

loop_
_atom_site_label
_atom_site_type_symbol
_atom_site_fract_x
_atom_site_fract_y
_atom_site_fract_z
_atom_site_charge
C 	C 	0.71348 0.29270 0.00755 0.13300
N 	N 	0.62154 0.26107 0.99570 -0.13900
C 	C 	0.59671 0.30933 0.99330 0.14000
N 	N 	0.66398 0.39309 0.99889 -0.13900
C 	C 	0.75501 0.42349 0.01326 0.13100
N 	N 	0.78068 0.37310 0.01791 -0.12900
C 	C 	0.68954 0.25460 0.53566 0.14300
N 	N 	0.60207 0.23251 0.52617 -0.13700
C 	C 	0.59043 0.28363 0.53089 0.14400
N 	N 	0.66582 0.35699 0.54469 -0.13900
C 	C 	0.75339 0.38121 0.55318 0.14300
N 	N 	0.76580 0.33023 0.54861 -0.14000
C 	C 	0.31511 0.65754 0.15560 0.14400
N 	N 	0.24559 0.57517 0.14729 -0.13100
C 	C 	0.26845 0.52354 0.15104 0.14500
N 	N 	0.35948 0.55449 0.16265 -0.14000
C 	C 	0.42856 0.63941 0.16678 0.15000
N 	N 	0.40664 0.68982 0.16471 -0.14000
C 	C 	0.29274 0.67516 0.63311 0.14400
N 	N 	0.38199 0.69976 0.64456 -0.13000
C 	C 	0.39941 0.65089 0.64174 0.14800
N 	N 	0.32768 0.57602 0.62858 -0.14000
C 	C 	0.23824 0.54871 0.61829 0.14500
N 	N 	0.21997 0.59818 0.62047 -0.13700
Co	Co	0.03865 0.87490 0.09897 1.18700
Co	Co	0.98756 0.07803 0.06336 1.17400
Co	Co	0.96767 0.92920 0.13253 1.20200
Co	Co	0.05726 0.02200 0.02986 1.15200
C 	C 	0.96495 0.72387 0.07256 0.32400
Co	Co	0.11556 0.90240 0.03693 1.18200
Co	Co	0.90195 0.04114 0.12563 1.15300
C 	C 	0.22962 0.10382 0.00981 0.33400
O 	O 	0.01849 0.07329 0.16990 -0.36400
O 	O 	0.96154 0.01802 0.10645 -0.78900
C 	C 	0.02623 0.00896 0.19595 0.16500
O 	O 	0.99134 0.84059 0.14226 -0.45400
O 	O 	0.02961 0.10845 0.01912 -0.47600
C 	C 	0.05226 0.22411 0.09113 0.33200
O 	O 	0.04158 0.99440 0.08670 -0.54200
C 	C 	0.78612 0.84052 0.14505 0.32800
C 	C 	0.21688 0.89092 0.11639 0.31700
C 	C 	0.98303 0.92841 0.96926 0.30800
O 	O 	0.02559 0.95535 0.18687 -0.29600
O 	O 	0.22938 0.94224 0.08222 -0.37200
O 	O 	0.15957 0.87674 0.13050 -0.36500
O 	O 	0.96540 0.17306 0.09375 -0.41800
O 	O 	0.07846 0.20062 0.07762 -0.38800
O 	O 	0.83196 0.90982 0.15816 -0.38100
O 	O 	0.82443 0.84045 0.12693 -0.38100
O 	O 	0.99485 0.86613 0.99464 -0.36300
O 	O 	0.97699 0.97569 0.97930 -0.33400
O 	O 	0.07027 0.93779 0.05732 -0.73200
C 	C 	0.80641 0.05511 0.04572 0.30600
O 	O 	0.79100 0.00374 0.07939 -0.43000
O 	O 	0.85882 0.06152 0.03204 -0.39600
O 	O 	0.05176 0.77228 0.07062 -0.40900
O 	O 	0.93820 0.75738 0.07976 -0.38900
O 	O 	0.18116 0.02883 0.00041 -0.44100
O 	O 	0.19473 0.11448 0.02510 -0.41100
Co	Co	0.03233 0.87611 0.59743 1.18600
Co	Co	0.95266 0.05461 0.56708 1.15900
Co	Co	0.95572 0.91409 0.63668 1.18600
Co	Co	0.02952 0.01708 0.52819 1.15400
C 	C 	0.98042 0.73462 0.57031 0.32000
Co	Co	0.11080 0.92460 0.52973 1.18200
Co	Co	0.88475 0.01774 0.63499 1.13300
C 	C 	0.21107 0.12210 0.51126 0.32600
O 	O 	0.01222 0.06377 0.67340 -0.38700
O 	O 	0.93176 0.99170 0.61064 -0.70800
C 	C 	0.03126 0.00617 0.69831 0.16500
O 	O 	0.99484 0.83914 0.64438 -0.44700
O 	O 	0.99226 0.09332 0.52053 -0.47700
C 	C 	0.01954 0.20162 0.59469 0.32600
O 	O 	0.96352 0.94496 0.57770 -0.55100
C 	C 	0.78276 0.81888 0.66004 0.32100
C 	C 	0.22018 0.91969 0.60765 0.30700
C 	C 	0.96967 0.93901 0.46366 0.30300
O 	O 	0.03796 0.96089 0.68726 -0.30600
O 	O 	0.22767 0.97107 0.57330 -0.37500
O 	O 	0.16847 0.90697 0.62426 -0.36100
O 	O 	0.93508 0.14644 0.60051 -0.42800
O 	O 	0.04800 0.17519 0.58396 -0.39900
O 	O 	0.83136 0.89068 0.67186 -0.38700
O 	O 	0.82099 0.81137 0.64502 -0.37300
O 	O 	0.98686 0.88045 0.48929 -0.38200
O 	O 	0.96815 0.98971 0.47374 -0.32700
O 	O 	0.04815 0.93608 0.55291 -0.73000
C 	C 	0.76985 0.02135 0.55768 0.21500
O 	O 	0.76479 0.97100 0.59247 -0.32300
O 	O 	0.82289 0.03756 0.54044 -0.36600
O 	O 	0.06369 0.79467 0.56266 -0.40700
O 	O 	0.95053 0.75363 0.58437 -0.38000
O 	O 	0.16601 0.05575 0.49638 -0.44600
O 	O 	0.17028 0.11735 0.53006 -0.41000
C 	C 	0.99763 0.96580 0.86545 0.07500
C 	C 	0.08471 0.03168 0.85533 -0.09400
C 	C 	0.09656 0.03269 0.82437 -0.09600
C 	C 	0.02171 0.96736 0.80336 0.08500
C 	C 	0.93471 0.90140 0.81353 -0.04100
C 	C 	0.92285 0.90041 0.84447 -0.03600
C 	C 	0.98848 0.95861 0.90012 0.04500
C 	C 	0.98337 0.94855 0.93048 -0.05500
C 	C 	0.03025 0.97526 0.76836 -0.00100
C 	C 	0.03392 0.98569 0.73762 0.01700
H 	H 	0.14349 0.08172 0.87155 0.05700
H 	H 	0.16362 0.08483 0.81657 0.05000
H 	H 	0.87587 0.85144 0.79728 0.05500
H 	H 	0.85574 0.84837 0.85223 0.05600
C 	C 	0.98243 0.97466 0.35978 0.07100
C 	C 	0.06979 0.04000 0.34992 -0.09200
C 	C 	0.08202 0.04048 0.31922 -0.09900
C 	C 	0.00722 0.97525 0.29817 0.08700
C 	C 	0.91976 0.91004 0.30795 -0.04200
C 	C 	0.90755 0.90952 0.33868 -0.03500
C 	C 	0.97320 0.96759 0.39440 0.04000
C 	C 	0.96867 0.95806 0.42479 -0.06300
C 	C 	0.01721 0.98138 0.26397 -0.00200
C 	C 	0.02348 0.99037 0.23409 0.02300
H 	H 	0.12861 0.08987 0.36620 0.04700
H 	H 	0.14947 0.09196 0.31174 0.05100
H 	H 	0.86099 0.86009 0.29170 0.05500
H 	H 	0.84017 0.85793 0.34621 0.05500
C 	C 	0.16200 0.46141 0.60821 -0.04200
C 	C 	0.15277 0.45341 0.57443 -0.08900
C 	C 	0.11382 0.36975 0.57088 0.18500
C 	C 	0.08160 0.29263 0.60094 -0.12300
C 	C 	0.08746 0.30029 0.63403 -0.04000
C 	C 	0.12435 0.38325 0.63719 0.13800
H 	H 	0.18135 0.51320 0.55182 0.07400
O 	O 	0.10469 0.36326 0.53759 -0.29000
H 	H 	0.06050 0.24092 0.65699 0.05100
O 	O 	0.13103 0.38916 0.67010 -0.27700
H 	H 	0.07224 0.37987 0.66600 0.14700
H 	H 	0.16394 0.37470 0.54059 0.16000
C 	C 	0.49619 0.68476 0.64824 -0.04100
C 	C 	0.52368 0.69517 0.61986 -0.08800
C 	C 	0.61620 0.72907 0.62524 0.19000
C 	C 	0.68214 0.75309 0.65924 -0.11800
C 	C 	0.65179 0.73369 0.68899 -0.04100
C 	C 	0.55941 0.70053 0.68346 0.14100
H 	H 	0.47384 0.67921 0.59320 0.07800
O 	O 	0.64257 0.74059 0.59694 -0.28100
H 	H 	0.70159 0.74981 0.71564 0.06400
O 	O 	0.53199 0.68634 0.71210 -0.27100
H 	H 	0.50750 0.62287 0.72644 0.15100
H 	H 	0.66055 0.80127 0.58031 0.16500
C 	C 	0.27761 0.73891 0.62940 -0.03800
C 	C 	0.21155 0.70979 0.64601 -0.08200
C 	C 	0.20047 0.77145 0.64380 0.18300
C 	C 	0.25370 0.86251 0.62372 -0.10200
C 	C 	0.32565 0.89248 0.61049 -0.04800
C 	C 	0.33613 0.83131 0.61230 0.14700
H 	H 	0.16978 0.63992 0.66108 0.07500
O 	O 	0.14235 0.74379 0.66318 -0.27600
H 	H 	0.36959 0.96282 0.59630 0.08300
O 	O 	0.40005 0.86127 0.59534 -0.26200
H 	H 	0.46050 0.88257 0.61470 0.16500
H 	H 	0.07866 0.71659 0.64619 0.16100
C 	C 	0.19807 0.44052 0.13760 -0.04000
C 	C 	0.20597 0.36867 0.15850 -0.09200
C 	C 	0.17339 0.30710 0.14080 0.18600
C 	C 	0.11961 0.30803 0.10339 -0.12700
C 	C 	0.10812 0.37757 0.08267 -0.03600
C 	C 	0.14645 0.44332 0.09965 0.13800
H 	H 	0.24541 0.36565 0.18775 0.07400
O 	O 	0.19116 0.24359 0.16066 -0.28900
H 	H 	0.06718 0.37916 0.05369 0.05800
O 	O 	0.13778 0.51282 0.07850 -0.27200
H 	H 	0.07894 0.49143 0.08171 0.15600
H 	H 	0.25099 0.27149 0.15580 0.15100
C 	C 	0.51982 0.68357 0.16180 -0.04300
C 	C 	0.52868 0.70700 0.12560 -0.08900
C 	C 	0.61455 0.74617 0.12034 0.19100
C 	C 	0.69246 0.76348 0.15131 -0.11900
C 	C 	0.67973 0.72875 0.18802 -0.03800
C 	C 	0.59436 0.69104 0.19327 0.14300
H 	H 	0.46919 0.69589 0.10150 0.07800
O 	O 	0.62319 0.77052 0.08472 -0.28000
H 	H 	0.73883 0.73882 0.21222 0.06300
O 	O 	0.58375 0.66106 0.22914 -0.27400
H 	H 	0.60368 0.71381 0.23450 0.15400
H 	H 	0.63727 0.83145 0.07316 0.17600
C 	C 	0.29276 0.71742 0.14987 -0.03600
C 	C 	0.35912 0.81166 0.14001 -0.08700
C 	C 	0.33858 0.86952 0.13302 0.18500
C 	C 	0.25057 0.83388 0.13538 -0.11100
C 	C 	0.18730 0.74013 0.14833 -0.03900
C 	C 	0.20745 0.68179 0.15517 0.14200
H 	H 	0.42611 0.84032 0.13687 0.08000
O 	O 	0.40503 0.96119 0.12407 -0.26600
H 	H 	0.12017 0.71199 0.15113 0.06400
O 	O 	0.14510 0.59064 0.16808 -0.27200
H 	H 	0.09967 0.56794 0.14503 0.15400
H 	H 	0.39762 0.97850 0.09639 0.16800
C 	C 	0.70039 0.19170 0.53556 -0.06200
C 	C 	0.76850 0.22426 0.51922 -0.07100
C 	C 	0.78337 0.16571 0.52145 0.16100
C 	C 	0.73169 0.07419 0.54126 -0.06200
C 	C 	0.65646 0.04020 0.55359 -0.16200
C 	C 	0.64224 0.09858 0.55177 0.17400
H 	H 	0.81031 0.29494 0.50496 0.07300
O 	O 	0.84599 0.19739 0.50331 -0.27600
H 	H 	0.61325 0.96921 0.56724 0.13500
O 	O 	0.57266 0.06469 0.56655 -0.29900
H 	H 	0.60281 0.06753 0.59343 0.13100
H 	H 	0.90847 0.22559 0.52102 0.16100
C 	C 	0.92671 0.64184 0.56793 -0.11600
C 	C 	0.92832 0.62904 0.53829 -0.03900
C 	C 	0.88388 0.54229 0.53661 0.14300
C 	C 	0.83392 0.46693 0.56382 -0.04400
C 	C 	0.84011 0.48008 0.59540 -0.08800
C 	C 	0.88473 0.56693 0.59725 0.18500
H 	H 	0.96328 0.68655 0.51624 0.06200
O 	O 	0.88182 0.53085 0.50636 -0.27100
H 	H 	0.80387 0.42228 0.61709 0.06700
O 	O 	0.88887 0.57835 0.62803 -0.29000
H 	H 	0.83044 0.57192 0.62173 0.16100
H 	H 	0.93706 0.53080 0.51448 0.15300
C 	C 	0.49612 0.25571 0.52412 -0.04300
C 	C 	0.46780 0.23996 0.55359 -0.09200
C 	C 	0.37597 0.20804 0.54813 0.18600
C 	C 	0.31188 0.19131 0.51299 -0.12600
C 	C 	0.34482 0.21986 0.48220 -0.04100
C 	C 	0.43576 0.24938 0.48789 0.13800
H 	H 	0.51608 0.24973 0.58107 0.06700
O 	O 	0.34860 0.19185 0.57728 -0.28600
H 	H 	0.29712 0.21149 0.45454 0.05700
O 	O 	0.46591 0.27315 0.45796 -0.27100
H 	H 	0.44783 0.21659 0.45703 0.14600
H 	H 	0.32896 0.12984 0.59237 0.14000
C 	C 	0.73715 0.23290 0.01404 -0.04600
C 	C 	0.66803 0.13883 0.02097 -0.07300
C 	C 	0.68647 0.08068 0.02617 0.11000
C 	C 	0.77588 0.11525 0.02589 -0.10500
C 	C 	0.84289 0.20949 0.01608 -0.04600
C 	C 	0.82417 0.26837 0.01040 0.13500
H 	H 	0.59986 0.11030 0.02284 0.05300
O 	O 	0.61681 0.98950 0.03182 -0.21900
H 	H 	0.91113 0.23720 0.01465 0.05900
O 	O 	0.88940 0.35983 0.99997 -0.26000
H 	H 	0.92936 0.37902 0.02402 0.14800
H 	H 	0.61945 0.96687 0.05930 0.15800
C 	C 	0.89637 0.63799 0.06127 -0.12300
C 	C 	0.91012 0.56972 0.08212 -0.04000
C 	C 	0.87205 0.50316 0.06555 0.13500
C 	C 	0.82193 0.50594 0.02738 -0.03400
C 	C 	0.81125 0.57620 0.00647 -0.10000
C 	C 	0.84107 0.63675 0.02410 0.18800
H 	H 	0.95340 0.57025 0.11075 0.05500
O 	O 	0.88460 0.43615 0.08668 -0.28200
H 	H 	0.77223 0.57896 0.97716 0.08300
O 	O 	0.82015 0.69797 0.00417 -0.28000
H 	H 	0.75986 0.66811 0.00927 0.15500
H 	H 	0.83054 0.38722 0.09877 0.14900
C 	C 	0.32362 0.17611 0.00296 -0.14200
C 	C 	0.40052 0.20278 0.03394 -0.03700
C 	C 	0.48980 0.24519 0.03098 0.12600
C 	C 	0.50281 0.26284 0.99651 -0.03500
C 	C 	0.42756 0.24306 0.96467 -0.10100
C 	C 	0.33817 0.20080 0.96764 0.19800
H 	H 	0.38982 0.18445 0.06113 0.05300
O 	O 	0.56342 0.26468 0.06236 -0.28200
H 	H 	0.43813 0.25971 0.93772 0.07000
O 	O 	0.26374 0.17807 0.93668 -0.29900
H 	H 	0.26048 0.23020 0.92431 0.15100
H 	H 	0.59140 0.32609 0.06233 0.14900
