data_crystal

_cell_length_a 16.51171
_cell_length_b 15.17049
_cell_length_c 36.49957
_cell_angle_alpha 89.87682
_cell_angle_beta  89.87957
_cell_angle_gamma 119.41229

_symmetry_space_group_name_	'P 1'
_symmetry_space_group_name_H-M	'P 1'

loop_
_symmetry_equiv_pos_as_xyz
  x,y,z

loop_
_atom_site_label
_atom_site_type_symbol
_atom_site_fract_x
_atom_site_fract_y
_atom_site_fract_z
_atom_site_charge
Ni	Ni	0.06184 0.96168 0.75647 1.08900
Ni	Ni	0.06264 0.17358 0.74382 1.11500
O 	O 	0.04848 0.18405 0.22110 -0.37900
O 	O 	0.00602 0.17334 0.29761 -0.39000
C 	C 	0.00715 0.76083 0.37249 0.05100
H 	H 	0.02518 0.65743 0.40805 0.03500
C 	C 	0.00973 0.40444 0.51250 -0.04800
C 	C 	0.01488 0.42629 0.47500 -0.10400
H 	H 	0.02804 0.43295 0.58324 0.07200
H 	H 	0.05356 0.22465 0.65110 0.08600
H 	H 	0.03545 0.29976 0.61823 0.06700
C 	C 	0.01481 0.72589 0.71170 -0.19600
H 	H 	0.05087 0.68073 0.70906 0.05600
H 	H 	0.03719 0.76697 0.73813 0.03600
H 	H 	0.03775 0.78015 0.68842 0.06700
C 	C 	0.10421 0.50526 0.92480 0.10900
C 	C 	0.13616 0.56654 0.98816 -0.10200
N 	N 	0.12911 0.51854 0.88888 -0.20100
H 	H 	0.05234 0.52853 0.05240 0.10000
H 	H 	0.10252 0.83764 0.83413 0.06000
O 	O 	0.16041 0.05414 0.79258 -0.38000
O 	O 	0.08920 0.12449 0.69751 -0.41200
C 	C 	0.10018 0.15698 0.20155 0.30500
C 	C 	0.09462 0.23708 0.29338 0.29500
C 	C 	0.08370 0.88022 0.22325 0.29600
C 	C 	0.04424 0.90378 0.32652 0.23000
Ni	Ni	0.12089 0.05859 0.26849 1.12200
O 	O 	0.12903 0.09719 0.21521 -0.38300
O 	O 	0.10635 0.00020 0.31928 -0.34700
O 	O 	0.15363 0.20304 0.28579 -0.37600
C 	C 	0.06889 0.19777 0.13887 -0.05200
C 	C 	0.13288 0.20037 0.16472 -0.08300
C 	C 	0.15964 0.86352 0.16743 -0.03600
C 	C 	0.12156 0.82649 0.20196 -0.09300
H 	H 	0.16201 0.93199 0.15723 0.03800
H 	H 	0.00251 0.68953 0.25373 0.06100
C 	C 	0.09658 0.48873 0.30053 -0.03300
C 	C 	0.12619 0.34811 0.28996 -0.08100
C 	C 	0.06247 0.38608 0.29196 0.06200
H 	H 	0.04835 0.51461 0.30834 0.03200
C 	C 	0.04076 0.73503 0.40395 -0.02600
C 	C 	0.03961 0.86488 0.36474 -0.04800
H 	H 	0.06124 0.38842 0.52445 0.04900
C 	C 	0.15966 0.58008 0.95068 -0.04600
H 	H 	0.18952 0.58300 0.88015 0.08000
C 	C 	0.09961 0.24077 0.10394 0.09200
C 	C 	0.03176 0.24489 0.07749 -0.21400
H 	H 	0.05810 0.25437 0.04890 0.07900
H 	H 	0.02087 0.30949 0.08451 0.08100
H 	H 	0.08913 0.46373 0.86950 0.09100
H 	H 	0.15725 0.87446 0.87825 0.05200
C 	C 	0.10691 0.49933 0.46190 0.30100
O 	O 	0.13201 0.93830 0.25073 -0.39700
C 	C 	0.07072 0.69211 0.25160 -0.19300
C 	C 	0.10602 0.87879 0.85970 -0.17200
H 	H 	0.13200 0.95995 0.85366 0.06000
C 	C 	0.11608 0.73616 0.21522 0.07800
C 	C 	0.05242 0.47959 0.99873 0.11400
H 	H 	0.05714 0.61331 0.25474 0.06400
H 	H 	0.22496 0.64415 0.94203 0.04000
H 	H 	0.29049 0.16442 0.18415 0.08200
C 	C 	0.21287 0.60478 0.01472 0.31200
C 	C 	0.25411 0.27304 0.11817 -0.04200
C 	C 	0.22654 0.23620 0.15388 0.07700
C 	C 	0.29837 0.24094 0.18057 -0.19500
H 	H 	0.29122 0.27061 0.20748 0.06900
H 	H 	0.18069 0.80160 0.08673 0.06300
C 	C 	0.21954 0.14883 0.78485 0.28200
C 	C 	0.16081 0.11397 0.69546 0.31600
O 	O 	0.19134 0.21101 0.76942 -0.37000
O 	O 	0.16377 0.04324 0.71544 -0.37100
C 	C 	0.19879 0.81181 0.42724 0.28900
C 	C 	0.21886 0.60273 0.34172 0.29700
O 	O 	0.23611 0.80810 0.45958 -0.36600
O 	O 	0.24196 0.81912 0.39584 -0.38300
O 	O 	0.18649 0.54349 0.37066 -0.40100
O 	O 	0.13885 0.59071 0.47514 -0.39000
O 	O 	0.16346 0.46866 0.44703 -0.37900
H 	H 	0.20726 0.65358 0.41715 0.16600
C 	C 	0.22680 0.66667 0.13749 0.31000
C 	C 	0.23569 0.39585 0.08134 0.31000
O 	O 	0.25602 0.69986 0.02661 -0.38400
O 	O 	0.27518 0.62974 0.15331 -0.36900
O 	O 	0.22188 0.66623 0.10209 -0.39500
O 	O 	0.23036 0.46222 0.10202 -0.38000
O 	O 	0.30197 0.42748 0.05626 -0.37600
O 	O 	0.23324 0.53949 0.02803 -0.40300
C 	C 	0.19577 0.29324 0.09625 -0.10100
C 	C 	0.15344 0.68685 0.19430 -0.03800
C 	C 	0.19074 0.72284 0.15933 -0.09200
C 	C 	0.19345 0.81250 0.14565 0.07100
H 	H 	0.15146 0.61898 0.20492 0.04700
C 	C 	0.22944 0.85310 0.10771 -0.18200
H 	H 	0.11653 0.73858 0.27423 0.08200
H 	H 	0.29968 0.86275 0.10347 0.02700
H 	H 	0.23572 0.92873 0.10336 0.05700
C 	C 	0.19199 0.55220 0.30600 -0.09800
C 	C 	0.25219 0.52274 0.28977 0.08400
C 	C 	0.22117 0.41864 0.28528 -0.04500
H 	H 	0.26976 0.39357 0.27721 0.04800
C 	C 	0.10994 0.81196 0.42527 -0.10500
C 	C 	0.11323 0.90626 0.42476 0.10800
C 	C 	0.08227 0.93480 0.39336 -0.09900
H 	H 	0.09379 0.01132 0.39077 0.08200
C 	C 	0.25951 0.15210 0.63978 -0.03600
C 	C 	0.23989 0.18596 0.67243 -0.09700
H 	H 	0.21276 0.07651 0.62986 0.04800
H 	H 	0.17255 0.30114 0.70642 0.01400
H 	H 	0.28202 0.25620 0.56885 0.07700
H 	H 	0.04565 0.57740 0.76464 0.04600
C 	C 	0.31688 0.16951 0.83906 -0.03900
C 	C 	0.31413 0.18965 0.80157 -0.08100
H 	H 	0.25750 0.15317 0.85631 0.04900
H 	H 	0.33564 0.16230 0.72615 0.09200
H 	H 	0.30818 0.05805 0.89802 0.07200
H 	H 	0.32614 0.30368 0.11042 0.05000
H 	H 	0.37015 0.29235 0.17059 0.06800
Ni	Ni	0.27469 0.69699 0.47384 1.11300
Ni	Ni	0.27133 0.55048 0.41014 1.12000
Ni	Ni	0.34306 0.78378 0.39157 1.12100
O 	O 	0.30263 0.58757 0.49735 -0.37700
O 	O 	0.28853 0.69919 0.34420 -0.37800
O 	O 	0.27121 0.67081 0.42358 -0.71000
Ni	Ni	0.35124 0.57575 0.12351 1.11300
Ni	Ni	0.33876 0.74584 0.07289 1.11800
Ni	Ni	0.36240 0.57187 0.03478 1.12100
O 	O 	0.37409 0.64546 0.07826 -0.71100
C 	C 	0.14153 0.97196 0.45817 -0.24500
H 	H 	0.31731 0.03258 0.53386 0.06300
H 	H 	0.29247 0.35954 0.49113 0.04100
N 	N 	0.38907 0.26459 0.48879 -0.20300
H 	H 	0.31799 0.21858 0.48399 0.07800
C 	C 	0.33265 0.22153 0.61760 0.09200
C 	C 	0.28759 0.29297 0.67904 0.06200
C 	C 	0.24872 0.34420 0.70309 -0.17600
C 	C 	0.32059 0.21647 0.57693 -0.20700
H 	H 	0.26392 0.41751 0.69049 0.05700
H 	H 	0.28327 0.36148 0.73016 0.06300
H 	H 	0.28087 0.13680 0.56769 0.07600
H 	H 	0.38881 0.25340 0.56310 0.10100
N 	N 	0.39868 0.89219 0.96256 -0.19400
H 	H 	0.37076 0.93680 0.95322 0.06900
H 	H 	0.35506 0.81397 0.96417 0.09500
H 	H 	0.37530 0.24797 0.00285 0.08600
C 	C 	0.38896 0.15534 0.85323 0.08000
C 	C 	0.39214 0.20737 0.77957 0.07400
C 	C 	0.39384 0.22777 0.73950 -0.20700
C 	C 	0.38124 0.11555 0.89166 -0.19600
H 	H 	0.39072 0.29831 0.73560 0.07700
H 	H 	0.40438 0.17866 0.91148 0.07400
C 	C 	0.33921 0.60018 0.27099 -0.19900
C 	C 	0.37288 0.35364 0.66107 -0.03300
N 	N 	0.02014 0.46939 0.03363 -0.21000
H 	H 	0.41402 0.33278 0.06041 0.05200
C 	C 	0.35472 0.55677 0.48042 0.31800
O 	O 	0.37842 0.60346 0.37339 -0.38600
O 	O 	0.37127 0.57352 0.44578 -0.39700
O 	O 	0.43265 0.50887 0.10649 -0.37200
O 	O 	0.42094 0.69890 0.00136 -0.38500
O 	O 	0.45051 0.82810 0.04253 -0.40000
O 	O 	0.42053 0.81438 0.11914 -0.36800
H 	H 	0.44172 0.68951 0.07848 0.16100
H 	H 	0.37881 0.66654 0.28898 0.08300
H 	H 	0.32048 0.62608 0.24552 0.07700
H 	H 	0.38434 0.56782 0.26343 0.06400
H 	H 	0.19187 0.05129 0.45052 0.09100
H 	H 	0.17344 0.94530 0.47909 0.07900
H 	H 	0.07921 0.97006 0.47054 0.06800
C 	C 	0.36181 0.99914 0.53164 -0.07500
C 	C 	0.42436 0.36382 0.49707 0.10800
C 	C 	0.36573 0.40673 0.49727 -0.04600
C 	C 	0.40275 0.51179 0.50028 -0.10100
H 	H 	0.43267 0.23338 0.48606 0.09500
C 	C 	0.40203 0.31098 0.63385 -0.09600
H 	H 	0.41939 0.42968 0.67064 0.03800
N 	N 	0.43786 0.30365 0.99147 -0.19800
H 	H 	0.44834 0.30127 0.96335 0.08700
H 	H 	0.45824 0.23774 0.72620 0.07700
H 	H 	0.42479 0.07885 0.89498 0.07600
H 	H 	0.42141 0.87836 0.61461 0.08800
O 	O 	0.41081 0.89818 0.42955 -0.37700
O 	O 	0.41424 0.78840 0.46847 -0.39500
C 	C 	0.46946 0.79606 0.01194 0.28500
O 	O 	0.46235 0.70158 0.14455 -0.37600
C 	C 	0.40517 0.98929 0.56337 -0.14300
C 	C 	0.49068 0.93463 0.97046 0.06000
C 	C 	0.50155 0.37987 0.01258 0.10100
C 	C 	0.48109 0.38713 0.04945 -0.04200
C 	C 	0.47037 0.20783 0.79560 -0.03900
C 	C 	0.47219 0.18946 0.83309 -0.08500
C 	C 	0.44790 0.07841 0.58774 0.33700
C 	C 	0.43861 0.88058 0.46116 0.30900
C 	C 	0.44801 0.92977 0.56038 0.11200
N 	N 	0.44827 0.87349 0.58922 -0.20100
H 	H 	0.46699 0.81758 0.58554 0.07700
C 	C 	0.39610 0.99300 0.49690 0.08400
C 	C 	0.00588 0.25333 0.64334 -0.21200
O 	O 	0.45378 0.76639 0.39360 -0.39800
C 	C 	0.48232 0.92109 0.52604 -0.06400
C 	C 	0.49361 0.31894 0.63836 0.31200
C 	C 	0.48497 0.79322 0.13288 0.28500
H 	H 	0.33496 0.06562 0.46915 0.08600
N 	N 	0.38286 0.03988 0.46771 -0.18200
O 	O 	0.49619 0.24342 0.65414 -0.39900
O 	O 	0.48027 0.16387 0.57132 -0.40700
C 	C 	0.45596 0.69035 0.37820 0.31600
C 	C 	0.48990 0.53520 0.07737 0.30000
O 	O 	0.48472 0.58952 0.05033 -0.40000
C 	C 	0.45047 0.94493 0.49353 -0.12000
H 	H 	0.52270 0.88253 0.52421 0.04500
H 	H 	0.51956 0.08506 0.95597 0.03500
H 	H 	0.53213 0.22971 0.77927 0.04200
H 	H 	0.42696 0.06068 0.44496 0.10600
O 	O 	0.48983 0.07630 0.61825 -0.36700
H 	H 	0.48836 0.61699 0.31421 0.04300
C 	C 	0.51931 0.42408 0.50575 -0.10300
C 	C 	0.49882 0.57282 0.50722 0.11000
H 	H 	0.49278 0.70557 0.51713 0.09400
C 	C 	0.54908 0.03898 0.96535 0.00900
C 	C 	0.52702 0.87529 0.98522 -0.06600
C 	C 	0.53579 0.47732 0.06837 -0.10100
C 	C 	0.01961 0.42059 0.93600 -0.10900
H 	H 	0.01838 0.56561 0.81302 0.06100
O 	O 	0.56564 0.32532 0.87216 -0.38600
C 	C 	0.56068 0.24955 0.85294 0.28400
C 	C 	0.56327 0.38129 0.52952 0.31900
O 	O 	0.56218 0.39513 0.56426 -0.40500
H 	H 	0.54738 0.94754 0.18224 0.03500
C 	C 	0.55708 0.52951 0.50682 -0.04200
N 	N 	0.53556 0.67339 0.51384 -0.20100
H 	H 	0.57398 0.44197 0.70620 0.07900
H 	H 	0.02637 0.39887 0.77887 0.03100
H 	H 	0.03660 0.73696 0.91412 0.02600
O 	O 	0.57122 0.40625 0.63419 -0.39000
C 	C 	0.58837 0.45297 0.99781 -0.08800
C 	C 	0.62539 0.42645 0.96596 0.29600
O 	O 	0.59102 0.31935 0.51704 -0.37700
C 	C 	0.58089 0.87311 0.13964 -0.09800
C 	C 	0.54559 0.68531 0.32517 -0.03500
C 	C 	0.54430 0.70941 0.36190 -0.10200
H 	H 	0.55166 0.65857 0.25446 0.06500
H 	H 	0.60647 0.87716 0.61827 0.06600
C 	C 	0.62132 0.44513 0.72827 -0.19900
H 	H 	0.61439 0.36926 0.73227 0.08000
H 	H 	0.59995 0.46576 0.75431 0.07100
Ni	Ni	0.59329 0.20848 0.64174 1.12100
C 	C 	0.59821 0.92780 0.17213 -0.01900
O 	O 	0.63982 0.47799 0.93424 -0.37000
Ni	Ni	0.61197 0.22084 0.55176 1.11400
H 	H 	0.61238 0.85655 0.06888 0.07700
H 	H 	0.59210 0.72233 0.43246 0.08800
C 	C 	0.62399 0.91707 0.98707 -0.09700
C 	C 	0.62915 0.53443 0.05762 0.11000
O 	O 	0.63746 0.24181 0.84478 -0.36500
H 	H 	0.61943 0.74661 0.08373 0.07900
C 	C 	0.61836 0.75215 0.30211 0.06800
H 	H 	0.63069 0.57688 0.51227 0.03900
H 	H 	0.60719 0.71958 0.51727 0.07900
C 	C 	0.64600 0.08222 0.96769 -0.11400
C 	C 	0.61933 0.72347 0.26274 -0.19600
O 	O 	0.66444 0.37085 0.97269 -0.39200
H 	H 	0.65562 0.30378 0.91585 0.17300
O 	O 	0.63635 0.10691 0.57460 -0.35600
H 	H 	0.62215 0.85390 0.42857 0.08400
H 	H 	0.64120 0.92159 0.57154 0.07000
C 	C 	0.65308 0.52850 0.02114 -0.04900
H 	H 	0.66582 0.13254 0.74234 0.07100
H 	H 	0.02261 0.06435 0.79057 0.16400
O 	O 	0.64681 0.28766 0.59722 -0.70700
C 	C 	0.62714 0.78555 0.37755 0.08900
H 	H 	0.63266 0.78763 0.24464 0.07900
C 	C 	0.65176 0.82984 0.08581 -0.20700
C 	C 	0.66407 0.90521 0.59802 -0.18600
H 	H 	0.65277 0.87149 0.99768 0.04700
Ni	Ni	0.66853 0.42205 0.59679 1.11700
C 	C 	0.65313 0.85895 0.12517 0.08200
H 	H 	0.66027 0.05760 0.22593 0.05800
C 	C 	0.63858 0.79538 0.41855 -0.20000
Ni	Ni	0.68835 0.45062 0.88335 1.11200
H 	H 	0.70652 0.68749 0.93272 0.07600
H 	H 	0.66794 0.96220 0.25212 0.04700
H 	H 	0.68275 0.84513 0.59318 0.06200
H 	H 	0.68945 0.28524 0.77229 0.05200
H 	H 	0.69913 0.07902 0.77942 0.07900
O 	O 	0.68629 0.31875 0.67662 -0.37300
O 	O 	0.67659 0.14902 0.63538 -0.37500
C 	C 	0.67523 0.94627 0.19395 0.02300
C 	C 	0.68401 0.02019 0.97861 0.15500
O 	O 	0.69244 0.16675 0.90999 -0.39000
H 	H 	0.67360 0.70142 0.25872 0.07300
H 	H 	0.70821 0.64773 0.73955 0.04700
H 	H 	0.67427 0.61157 0.10735 0.08800
C 	C 	0.70193 0.17498 0.94592 0.30100
C 	C 	0.69260 0.12179 0.60305 0.28300
C 	C 	0.00578 0.40041 0.97359 -0.06600
N 	N 	0.69261 0.60457 0.08052 -0.20300
C 	C 	0.69523 0.01107 0.22751 -0.11500
C 	C 	0.69311 0.84206 0.31686 -0.08900
O 	O 	0.71642 0.35837 0.90728 -0.71100
C 	C 	0.69595 0.85796 0.35476 -0.04200
C 	C 	0.71992 0.52143 0.71868 0.07900
C 	C 	0.72607 0.13321 0.75614 -0.19700
H 	H 	0.71126 0.30099 0.59991 0.15800
O 	O 	0.72682 0.44111 0.82837 -0.36500
C 	C 	0.73693 0.41811 0.66924 0.29100
O 	O 	0.01211 0.22344 0.78357 -0.40000
C 	C 	0.72196 0.86263 0.14873 -0.04800
C 	C 	0.73110 0.90189 0.18410 -0.07200
H 	H 	0.72365 0.86481 0.07468 0.06600
H 	H 	0.71127 0.81783 0.42615 0.06900
C 	C 	0.74606 0.99794 0.61292 0.05000
H 	H 	0.72358 0.57765 0.01169 0.04800
C 	C 	0.01153 0.83314 0.87743 0.02700
H 	H 	0.76065 0.81764 0.94765 0.06500
C 	C 	0.75477 0.62364 0.72807 -0.03800
O 	O 	0.74713 0.30130 0.53657 -0.38300
H 	H 	0.75996 0.10806 0.73560 0.08900
H 	H 	0.00377 0.30291 0.66521 0.07500
Ni	Ni	0.75730 0.28526 0.87724 1.12000
C 	C 	0.76263 0.30905 0.77427 -0.04600
H 	H 	0.75617 0.92178 0.36680 0.04500
O 	O 	0.76290 0.45164 0.63555 -0.39900
O 	O 	0.76592 0.26129 0.96194 -0.38200
O 	O 	0.76223 0.45711 0.55332 -0.37700
C 	C 	0.77058 0.75070 0.94454 -0.20200
O 	O 	0.00542 0.04262 0.76496 -0.69800
H 	H 	0.76105 0.65169 0.07184 0.08300
C 	C 	0.76671 0.09506 0.60097 -0.05200
H 	H 	0.77344 0.91572 0.65492 0.05300
H 	H 	0.77087 0.83974 0.13889 0.04600
H 	H 	0.77058 0.06516 0.23007 0.03600
C 	C 	0.77698 0.49238 0.69931 -0.08700
N 	N 	0.77753 0.05894 0.98133 -0.20800
H 	H 	0.78229 0.72872 0.97223 0.07800
C 	C 	0.78150 0.89429 0.29685 0.29400
Ni	Ni	0.78650 0.40522 0.95091 1.12100
C 	C 	0.79332 0.23750 0.76992 0.08000
O 	O 	0.99905 0.83923 0.29922 -0.36100
O 	O 	0.99697 0.85737 0.21835 -0.38600
H 	H 	0.99587 0.16405 0.14606 0.06300
O 	O 	0.98838 0.00319 0.26792 -0.69900
H 	H 	0.97796 0.00553 0.29437 0.16600
H 	H 	0.97484 0.41966 0.40527 0.09700
C 	C 	0.94032 0.43336 0.45939 0.12000
N 	N 	0.93096 0.43253 0.42243 -0.20300
C 	C 	0.84734 0.61157 0.92164 0.32300
C 	C 	0.80233 0.43428 0.82286 0.31100
C 	C 	0.93630 0.40070 0.91550 0.33100
O 	O 	0.90336 0.45946 0.92274 -0.39900
O 	O 	0.81937 0.57066 0.88973 -0.37800
O 	O 	0.81837 0.55488 0.95144 -0.38000
O 	O 	0.83740 0.41414 0.85070 -0.39200
O 	O 	0.87992 0.31130 0.90123 -0.37400
C 	C 	0.79756 0.39988 0.54015 0.29500
C 	C 	0.88259 0.80420 0.73025 0.30500
C 	C 	0.94397 0.89482 0.82729 0.27300
C 	C 	0.89681 0.07483 0.69661 0.33200
C 	C 	0.92174 0.19243 0.78351 0.30400
Ni	Ni	0.87148 0.97387 0.76878 1.10900
O 	O 	0.84530 0.99257 0.71627 -0.41500
O 	O 	0.96369 0.87326 0.71832 -0.38700
O 	O 	0.83946 0.82853 0.75533 -0.37600
O 	O 	0.86024 0.09473 0.78815 -0.37100
O 	O 	0.98068 0.86651 0.80007 -0.36100
O 	O 	0.88942 0.93462 0.82005 -0.37800
O 	O 	0.95535 0.15995 0.71304 -0.39000
C 	C 	0.81309 0.91977 0.20636 0.27000
Ni	Ni	0.93673 0.08271 0.25397 1.11600
Ni	Ni	0.92044 0.86059 0.26026 1.11300
O 	O 	0.81241 0.98902 0.28430 -0.38900
O 	O 	0.83666 0.85551 0.30025 -0.40200
O 	O 	0.88462 0.00889 0.20591 -0.36700
O 	O 	0.81658 0.84487 0.22386 -0.37500
H 	H 	0.96394 0.17372 0.07885 0.08200
C 	C 	0.96093 0.32148 0.28270 -0.17100
H 	H 	0.92952 0.36921 0.27529 0.06100
H 	H 	0.92233 0.27444 0.30672 0.07400
H 	H 	0.95198 0.27286 0.25864 0.04400
C 	C 	0.93556 0.67797 0.34890 -0.17100
H 	H 	0.89927 0.60544 0.36433 0.06200
H 	H 	0.96978 0.66603 0.32471 0.07300
H 	H 	0.88160 0.69693 0.34003 0.07200
C 	C 	0.88177 0.45268 0.48216 -0.03900
C 	C 	0.88605 0.44607 0.52051 -0.09100
C 	C 	0.95750 0.43188 0.53554 0.11800
H 	H 	0.82613 0.46133 0.47004 0.05000
N 	N 	0.97465 0.44255 0.57210 -0.19700
H 	H 	0.87888 0.44330 0.41058 0.08400
H 	H 	0.93734 0.46447 0.58947 0.09100
C 	C 	0.79608 0.98912 0.64244 -0.05800
C 	C 	0.87089 0.07650 0.65744 -0.06600
C 	C 	0.90951 0.16706 0.63631 0.09900
C 	C 	0.85719 0.17420 0.60715 -0.05300
H 	H 	0.88054 0.24608 0.59346 0.05100
C 	C 	0.87328 0.55824 0.69904 -0.03700
C 	C 	0.84918 0.69464 0.72247 -0.09000
C 	C 	0.91054 0.65902 0.71092 0.08300
H 	H 	0.91872 0.53346 0.68692 0.04700
H 	H 	0.94615 0.33067 0.98277 0.05400
H 	H 	0.96028 0.40359 0.04188 0.08800
H 	H 	0.82353 0.13581 0.97718 0.10500
H 	H 	0.80514 0.01232 0.98849 0.09400
C 	C 	0.82438 0.40622 0.78712 -0.09200
C 	C 	0.91977 0.44252 0.78004 0.06800
C 	C 	0.95233 0.37231 0.77795 -0.01900
C 	C 	0.88853 0.26781 0.77685 -0.09700
C 	C 	0.98853 0.55286 0.78502 -0.15900
H 	H 	0.95466 0.59995 0.78134 0.07300
C 	C 	0.99045 0.76645 0.90740 0.01400
C 	C 	0.90157 0.72214 0.92330 -0.11600
C 	C 	0.85215 0.77538 0.91993 0.08800
C 	C 	0.86931 0.83848 0.88924 -0.05900
C 	C 	0.94371 0.85836 0.86542 -0.05000
H 	H 	0.82233 0.86716 0.88301 0.05200
