data_crystal

_cell_length_a 27.54699
_cell_length_b 30.39093
_cell_length_c 30.15119
_cell_angle_alpha 61.26299
_cell_angle_beta  118.41410
_cell_angle_gamma 133.18404

_symmetry_space_group_name_	'P 1'
_symmetry_space_group_name_H-M	'P 1'

loop_
_symmetry_equiv_pos_as_xyz
  x,y,z

loop_
_atom_site_label
_atom_site_type_symbol
_atom_site_fract_x
_atom_site_fract_y
_atom_site_fract_z
_atom_site_charge
C 	C 	0.70220 0.34073 0.97474 0.13400
N 	N 	0.73867 0.39662 0.98491 -0.13700
C 	C 	0.70522 0.41854 0.97783 0.13600
N 	N 	0.63643 0.38482 0.96077 -0.14100
C 	C 	0.59975 0.32663 0.95621 0.13600
N 	N 	0.63271 0.30498 0.96213 -0.13800
C 	C 	0.78428 0.37961 0.49529 0.13500
N 	N 	0.72866 0.33688 0.51638 -0.13800
C 	C 	0.70304 0.35574 0.52630 0.13900
N 	N 	0.73238 0.41691 0.51479 -0.14000
C 	C 	0.78932 0.45999 0.49577 0.13600
N 	N 	0.81603 0.44158 0.48620 -0.13500
C 	C 	0.24209 0.59256 0.34404 0.13000
N 	N 	0.19985 0.53064 0.34582 -0.14100
C 	C 	0.22477 0.50429 0.34600 0.13300
N 	N 	0.29096 0.53957 0.34483 -0.14100
C 	C 	0.33055 0.60181 0.33740 0.13500
N 	N 	0.30648 0.62851 0.33753 -0.14000
C 	C 	0.29191 0.62121 0.84495 0.13000
N 	N 	0.25544 0.56066 0.84526 -0.14000
C 	C 	0.28767 0.53991 0.84770 0.13300
N 	N 	0.35566 0.57926 0.85057 -0.14100
C 	C 	0.39051 0.64057 0.84488 0.13400
N 	N 	0.35882 0.66173 0.84253 -0.13900
Co	Co	0.07282 0.97635 0.17987 1.17500
Co	Co	0.88613 0.96226 0.13103 1.18500
Co	Co	0.01379 0.02051 0.21007 1.17500
Co	Co	0.95108 0.93019 0.09374 1.19500
C 	C 	0.07984 0.86527 0.22505 0.31300
Co	Co	0.06376 0.91372 0.11087 1.16600
Co	Co	0.88893 0.01342 0.20618 1.17600
C 	C 	0.01450 0.97186 0.00745 0.25900
O 	O 	0.95964 0.10593 0.17761 -0.35900
O 	O 	0.93378 0.99989 0.17881 -0.75900
C 	C 	0.02476 0.13272 0.20114 0.26700
O 	O 	0.09471 0.02082 0.22701 -0.46200
O 	O 	0.86877 0.92703 0.07836 -0.46300
C 	C 	0.83303 0.03612 0.09263 0.32500
O 	O 	0.99124 0.99237 0.14172 -0.56700
C 	C 	0.97481 0.98315 0.30515 0.27400
C 	C 	0.18838 0.03200 0.13870 0.35000
C 	C 	0.91526 0.81283 0.09446 0.32700
O 	O 	0.05822 0.11203 0.20753 -0.37500
O 	O 	0.16320 0.97414 0.14754 -0.42600
O 	O 	0.16112 0.04543 0.15150 -0.38600
O 	O 	0.81582 0.00640 0.13725 -0.40500
O 	O 	0.86314 0.02514 0.08024 -0.37400
O 	O 	0.95644 0.02057 0.27871 -0.37000
O 	O 	0.98730 0.96625 0.28116 -0.37600
O 	O 	0.96770 0.85047 0.07362 -0.38200
O 	O 	0.90201 0.83472 0.11251 -0.38500
O 	O 	0.02828 0.94507 0.12816 -0.78400
C 	C 	0.78462 0.88192 0.20034 0.31500
O 	O 	0.82632 0.91857 0.23244 -0.39200
O 	O 	0.80778 0.88241 0.17001 -0.38700
O 	O 	0.04739 0.84923 0.18062 -0.40600
O 	O 	0.07620 0.90145 0.23458 -0.39700
O 	O 	0.07105 0.97967 0.04147 -0.38300
O 	O 	0.97022 0.96726 0.01972 -0.34700
Co	Co	0.11811 0.99543 0.69564 1.18000
Co	Co	0.93548 0.99403 0.62871 1.18600
Co	Co	0.04545 0.02835 0.72308 1.17400
Co	Co	0.00361 0.95257 0.60630 1.16900
C 	C 	0.15004 0.90582 0.74421 0.32600
Co	Co	0.12465 0.94198 0.63033 1.16700
Co	Co	0.92319 0.03753 0.69914 1.18400
C 	C 	0.04785 0.97220 0.52058 0.32000
O 	O 	0.01012 0.09251 0.74857 -0.42300
O 	O 	0.97480 0.02326 0.68047 -0.73600
C 	C 	0.07043 0.13413 0.73785 0.32300
O 	O 	0.12626 0.02597 0.74722 -0.46100
O 	O 	0.92330 0.95614 0.58102 -0.45300
C 	C 	0.92477 0.10357 0.58756 0.31100
O 	O 	0.03925 0.01501 0.65226 -0.58600
C 	C 	0.95774 0.96409 0.79826 0.27200
C 	C 	0.23949 0.06964 0.64584 0.31300
C 	C 	0.98123 0.83275 0.62455 0.36000
O 	O 	0.09683 0.11869 0.72611 -0.39200
O 	O 	0.19829 0.03623 0.61094 -0.37400
O 	O 	0.21772 0.06146 0.68231 -0.36600
O 	O 	0.94970 0.11084 0.63512 -0.37800
O 	O 	0.91435 0.05945 0.57657 -0.36000
O 	O 	0.90518 0.96243 0.76246 -0.37800
O 	O 	0.99969 0.96528 0.78668 -0.36700
O 	O 	0.04373 0.85120 0.65154 -0.42600
O 	O 	0.95385 0.85674 0.62252 -0.38300
O 	O 	0.08099 0.96953 0.64242 -0.77500
C 	C 	0.80999 0.92412 0.66155 0.32700
O 	O 	0.83110 0.98049 0.65341 -0.41400
O 	O 	0.85021 0.91650 0.65926 -0.39700
O 	O 	0.18118 0.93914 0.70627 -0.41600
O 	O 	0.11017 0.91509 0.74474 -0.40700
O 	O 	0.07130 0.93910 0.55308 -0.41400
O 	O 	0.03297 0.99409 0.53714 -0.40800
C 	C 	0.96966 0.96402 0.85210 -0.00000
C 	C 	0.00383 0.93945 0.89424 -0.08000
C 	C 	0.01885 0.94167 0.94495 0.03200
C 	C 	0.00112 0.97043 0.95395 -0.11500
C 	C 	0.96682 0.99481 0.91193 0.03700
C 	C 	0.95013 0.99116 0.86146 -0.03700
H 	H 	0.01805 0.91777 0.88773 0.05400
H 	H 	0.95275 0.01657 0.91851 0.05600
C 	C 	0.91289 0.01537 0.81986 0.10900
C 	C 	0.05031 0.91239 0.98749 0.04900
N 	N 	0.88297 0.03476 0.78670 -0.13500
N 	N 	0.07553 0.88891 0.02147 -0.13500
C 	C 	0.02933 0.97725 0.46458 -0.15400
C 	C 	0.96092 0.93660 0.44101 0.06500
C 	C 	0.94322 0.93260 0.39043 -0.03300
C 	C 	0.99415 0.97074 0.36229 -0.01300
C 	C 	0.06290 0.00956 0.38665 -0.06400
C 	C 	0.08069 0.01324 0.43741 0.05900
H 	H 	0.92162 0.90680 0.46260 0.02800
H 	H 	0.10223 0.03934 0.36510 0.05300
C 	C 	0.15167 0.05498 0.46099 0.06500
C 	C 	0.87260 0.88898 0.36768 0.09100
N 	N 	0.20852 0.08839 0.47992 -0.10400
N 	N 	0.81600 0.85394 0.34958 -0.11300
C 	C 	0.16018 0.29015 0.77553 -0.01000
C 	C 	0.22939 0.34037 0.78400 -0.02700
C 	C 	0.25060 0.38842 0.80019 -0.04300
C 	C 	0.20265 0.38635 0.80801 0.01700
C 	C 	0.13346 0.33618 0.79945 -0.04500
C 	C 	0.11226 0.28818 0.78326 -0.02800
C 	C 	0.22476 0.43712 0.82293 0.00400
C 	C 	0.24919 0.48217 0.83519 -0.03900
C 	C 	0.13790 0.23895 0.76114 0.05200
C 	C 	0.11198 0.19302 0.74945 -0.11100
H 	H 	0.26675 0.34212 0.77835 0.04200
H 	H 	0.30423 0.42730 0.80654 0.04700
H 	H 	0.09609 0.33438 0.80516 0.04200
H 	H 	0.05862 0.24927 0.77697 0.03700
C 	C 	0.55927 0.74255 0.79125 0.01800
C 	C 	0.55224 0.71379 0.76140 -0.04200
C 	C 	0.60473 0.74406 0.73809 -0.02600
C 	C 	0.66452 0.80313 0.74465 -0.00800
C 	C 	0.67271 0.83069 0.77635 -0.02600
C 	C 	0.62010 0.80052 0.79949 -0.04300
C 	C 	0.71305 0.83935 0.71346 0.05700
C 	C 	0.75668 0.87440 0.68918 -0.11000
C 	C 	0.50336 0.71244 0.81259 0.00600
C 	C 	0.45342 0.68294 0.82849 -0.03700
H 	H 	0.50556 0.66855 0.75539 0.04700
H 	H 	0.59795 0.72247 0.71366 0.04300
H 	H 	0.71893 0.87639 0.78166 0.04400
H 	H 	0.62624 0.82271 0.82299 0.04700
C 	C 	0.20076 0.68721 0.84171 0.01600
C 	C 	0.14207 0.67868 0.80302 -0.04500
C 	C 	0.12025 0.71334 0.79340 -0.03000
C 	C 	0.15748 0.75728 0.82203 -0.01200
C 	C 	0.21134 0.76040 0.86461 -0.02800
C 	C 	0.23326 0.72576 0.87422 -0.04400
C 	C 	0.15396 0.80940 0.79895 0.05000
C 	C 	0.14870 0.85176 0.77713 -0.11500
C 	C 	0.23264 0.66336 0.84333 0.00200
C 	C 	0.25897 0.64327 0.84442 -0.03700
H 	H 	0.11567 0.64796 0.77840 0.04100
H 	H 	0.07782 0.70971 0.76094 0.03700
H 	H 	0.23988 0.79343 0.88755 0.03900
H 	H 	0.27782 0.73168 0.90499 0.04500
C 	C 	0.12636 0.34294 0.31259 0.00300
C 	C 	0.17112 0.32783 0.32791 -0.03100
C 	C 	0.15439 0.28576 0.30666 -0.04100
C 	C 	0.09265 0.25827 0.27019 0.01700
C 	C 	0.04632 0.27092 0.25681 -0.08700
C 	C 	0.06315 0.31316 0.27796 -0.02100
C 	C 	0.07550 0.21568 0.24737 0.02600
C 	C 	0.05665 0.17939 0.22644 -0.09500
C 	C 	0.15152 0.39734 0.32393 0.00900
C 	C 	0.17961 0.44423 0.33531 -0.04200
H 	H 	0.22019 0.35072 0.35460 0.04500
H 	H 	0.18990 0.27538 0.31795 0.04800
H 	H 	0.99787 0.24896 0.22929 0.08100
H 	H 	0.02834 0.32463 0.26571 0.03100
C 	C 	0.59961 0.75068 0.23632 -0.00600
C 	C 	0.54130 0.74859 0.20393 -0.02800
C 	C 	0.48818 0.72123 0.22515 -0.04200
C 	C 	0.49298 0.69546 0.27875 0.01700
C 	C 	0.54932 0.69423 0.31060 -0.04100
C 	C 	0.60230 0.72146 0.28940 -0.02600
C 	C 	0.43700 0.66472 0.30016 0.00700
C 	C 	0.39000 0.63900 0.31796 -0.03800
C 	C 	0.66197 0.79529 0.21873 0.05400
C 	C 	0.71661 0.83213 0.20758 -0.10200
H 	H 	0.53873 0.77107 0.16286 0.04100
H 	H 	0.44374 0.72069 0.20002 0.04500
H 	H 	0.55243 0.67275 0.35185 0.04700
H 	H 	0.64717 0.72283 0.31474 0.04900
C 	C 	0.14732 0.75907 0.32702 -0.01000
C 	C 	0.21622 0.78523 0.33551 -0.02900
C 	C 	0.23509 0.74781 0.34627 -0.04400
C 	C 	0.18523 0.68391 0.34907 0.01600
C 	C 	0.11782 0.65665 0.34668 -0.04500
C 	C 	0.09905 0.69410 0.33624 -0.03000
C 	C 	0.20158 0.64838 0.34772 0.00200
C 	C 	0.21811 0.62101 0.34651 -0.03800
C 	C 	0.12407 0.79786 0.29423 0.04600
C 	C 	0.10491 0.83053 0.26679 -0.10900
H 	H 	0.25424 0.83519 0.32942 0.04000
H 	H 	0.28773 0.76912 0.34938 0.04600
H 	H 	0.07917 0.60709 0.35001 0.04000
H 	H 	0.04583 0.67313 0.33074 0.03600
C 	C 	0.84981 0.30660 0.47282 0.02000
C 	C 	0.91808 0.32739 0.49061 -0.03800
C 	C 	0.93412 0.28852 0.49936 -0.02500
C 	C 	0.88184 0.22844 0.49089 -0.00100
C 	C 	0.81502 0.21126 0.46645 -0.02700
C 	C 	0.79895 0.25014 0.45766 -0.03900
C 	C 	0.89265 0.18064 0.52043 0.05200
C 	C 	0.90646 0.14398 0.54725 -0.09000
C 	C 	0.83030 0.33593 0.48019 0.01000
C 	C 	0.81141 0.35866 0.48576 -0.03000
H 	H 	0.95807 0.37159 0.50128 0.05400
H 	H 	0.98628 0.30297 0.51709 0.05300
H 	H 	0.77440 0.16555 0.45861 0.04700
H 	H 	0.74618 0.23426 0.44267 0.04900
C 	C 	0.90505 0.71944 0.53841 -0.03300
C 	C 	0.95571 0.72213 0.53421 0.03700
C 	C 	0.93727 0.67725 0.51540 -0.06500
C 	C 	0.86812 0.62958 0.50063 0.03400
C 	C 	0.81758 0.63031 0.50047 -0.05100
C 	C 	0.83601 0.67497 0.51955 -0.01000
C 	C 	0.84888 0.57364 0.49679 0.00600
C 	C 	0.82583 0.52393 0.49383 -0.02900
C 	C 	0.92416 0.75727 0.56768 0.07800
C 	C 	0.94591 0.79084 0.59297 -0.12100
H 	H 	0.00933 0.75707 0.54794 -0.00200
H 	H 	0.97672 0.67745 0.51531 0.06300
H 	H 	0.76393 0.59398 0.48861 0.05200
H 	H 	0.79654 0.67309 0.52188 0.04000
C 	C 	0.55415 0.24506 0.60501 0.01900
C 	C 	0.51400 0.18005 0.61913 -0.04100
C 	C 	0.45607 0.14627 0.63733 -0.02500
C 	C 	0.43782 0.17746 0.64100 -0.00600
C 	C 	0.48122 0.24244 0.63106 -0.02600
C 	C 	0.53935 0.27622 0.61308 -0.04100
C 	C 	0.36932 0.14390 0.64436 0.05400
C 	C 	0.31092 0.11196 0.64696 -0.09800
C 	C 	0.60586 0.27977 0.57740 0.01000
C 	C 	0.64987 0.31213 0.55405 -0.03500
H 	H 	0.52581 0.15566 0.61381 0.04900
H 	H 	0.42311 0.09593 0.64555 0.04500
H 	H 	0.46787 0.26688 0.63429 0.04400
H 	H 	0.57099 0.32661 0.60307 0.04900
C 	C 	0.78709 0.26200 0.99246 0.01600
C 	C 	0.84369 0.26755 0.03258 -0.03500
C 	C 	0.85994 0.22753 0.04522 -0.02700
C 	C 	0.81949 0.18158 0.01794 -0.00000
C 	C 	0.76662 0.17971 0.97493 -0.02900
C 	C 	0.75042 0.21979 0.96225 -0.03800
C 	C 	0.82298 0.12951 0.04051 0.05600
C 	C 	0.82835 0.08727 0.06156 -0.10100
C 	C 	0.76046 0.29228 0.98733 0.01000
C 	C 	0.73629 0.31655 0.98171 -0.03200
H 	H 	0.87288 0.30052 0.05574 0.05200
H 	H 	0.90134 0.22976 0.07823 0.05000
H 	H 	0.73543 0.14478 0.95330 0.04700
H 	H 	0.70710 0.21570 0.93071 0.04900
C 	C 	0.80788 0.64895 0.06306 -0.00800
C 	C 	0.80519 0.65963 0.01147 -0.01500
C 	C 	0.79270 0.61569 0.99576 -0.04800
C 	C 	0.78174 0.56013 0.03125 0.02500
C 	C 	0.78228 0.54837 0.08251 -0.04200
C 	C 	0.79547 0.59276 0.09843 -0.02200
C 	C 	0.75864 0.51131 0.01284 0.01300
C 	C 	0.73930 0.47042 0.99746 -0.03600
C 	C 	0.83904 0.70091 0.08154 0.06000
C 	C 	0.86855 0.74964 0.09045 -0.09900
H 	H 	0.81544 0.70319 0.98398 0.04500
H 	H 	0.79076 0.62457 0.95577 0.05300
H 	H 	0.77213 0.50483 0.10992 0.05100
H 	H 	0.79832 0.58430 0.13855 0.04600
C 	C 	0.31073 0.14809 0.03666 -0.01300
C 	C 	0.35190 0.21306 0.02509 -0.02000
C 	C 	0.40195 0.24792 0.99766 -0.04600
C 	C 	0.41151 0.21783 0.98237 0.02100
C 	C 	0.36602 0.15313 0.98965 -0.04500
C 	C 	0.31560 0.11827 0.01674 -0.01900
C 	C 	0.47535 0.25140 0.97040 0.00800
C 	C 	0.53062 0.28376 0.96143 -0.03500
C 	C 	0.26924 0.11188 0.07346 0.06700
C 	C 	0.23327 0.07795 0.10392 -0.11800
H 	H 	0.34746 0.23646 0.03946 0.04300
H 	H 	0.43634 0.29810 0.99144 0.04900
H 	H 	0.37245 0.12955 0.97734 0.05100
H 	H 	0.28277 0.06796 0.02461 0.04600
