data_crystal

_cell_length_a 18.66803
_cell_length_b 18.96062
_cell_length_c 26.65231
_cell_angle_alpha 95.40750
_cell_angle_beta  95.40729
_cell_angle_gamma 126.39465

_symmetry_space_group_name_	'P 1'
_symmetry_space_group_name_H-M	'P 1'

loop_
_symmetry_equiv_pos_as_xyz
  x,y,z

loop_
_atom_site_label
_atom_site_type_symbol
_atom_site_fract_x
_atom_site_fract_y
_atom_site_fract_z
_atom_site_charge
C 	C 	0.95326 0.03589 0.99503 0.04200
C 	C 	0.04756 0.08762 0.99755 -0.08400
C 	C 	0.08973 0.04606 0.99658 0.03900
C 	C 	0.03810 0.95385 0.99382 -0.08400
C 	C 	0.94486 0.90286 0.99217 0.04500
C 	C 	0.90235 0.94358 0.99254 -0.08000
H 	H 	0.08745 0.15916 0.99986 0.05100
H 	H 	0.07068 0.92181 0.99315 0.05400
H 	H 	0.82970 0.90352 0.99075 0.05400
C 	C 	0.90272 0.99922 0.44901 0.02900
C 	C 	0.99580 0.05166 0.44847 -0.05900
C 	C 	0.04173 0.01433 0.45134 0.01600
C 	C 	0.99426 0.92361 0.45257 -0.05500
C 	C 	0.90100 0.86984 0.45208 0.02700
C 	C 	0.85481 0.90768 0.45057 -0.06800
H 	H 	0.03306 0.12220 0.44774 0.04600
H 	H 	0.03017 0.89498 0.45462 0.04600
H 	H 	0.78295 0.86678 0.45129 0.05100
Cu	Cu	0.63020 0.21669 0.01432 0.92800
Cu	Cu	0.65891 0.17341 0.89500 0.87300
Cu	Cu	0.69366 0.35431 0.94527 0.89900
Cu	Cu	0.62685 0.38027 0.04110 0.89900
C 	C 	0.64905 0.28777 0.12036 0.29100
O 	O 	0.49634 0.15829 0.01235 -0.35400
C 	C 	0.66110 0.29315 0.83474 0.29100
O 	O 	0.69992 0.35308 0.01696 -0.64100
O 	O 	0.61641 0.22153 0.93977 -0.64100
O 	O 	0.70789 0.17602 0.01906 -0.36200
O 	O 	0.65464 0.09675 0.93732 -0.42200
O 	O 	0.61380 0.32716 0.10441 -0.38200
O 	O 	0.76457 0.48210 0.95631 -0.38200
C 	C 	0.74886 0.52793 0.98752 0.28600
C 	C 	0.46009 0.19484 0.99398 0.28100
O 	O 	0.51239 0.27508 0.98352 -0.38900
O 	O 	0.67583 0.48755 0.00865 -0.38500
O 	O 	0.65721 0.23643 0.08796 -0.36000
C 	C 	0.71098 0.12867 0.98116 0.28300
O 	O 	0.71520 0.35811 0.87458 -0.39800
O 	O 	0.62419 0.20954 0.83814 -0.41500
H 	H 	0.76283 0.39131 0.03659 0.15800
H 	H 	0.55329 0.19467 0.92409 0.16700
Cu	Cu	0.74669 0.34170 0.44390 0.92500
Cu	Cu	0.74356 0.27167 0.55245 0.87400
Cu	Cu	0.60827 0.29540 0.51376 0.89500
Cu	Cu	0.57810 0.33961 0.41185 0.89600
C 	C 	0.67147 0.31057 0.33707 0.29200
O 	O 	0.80230 0.47327 0.44421 -0.35700
C 	C 	0.67477 0.32450 0.62561 0.29100
O 	O 	0.60644 0.27085 0.44176 -0.63800
O 	O 	0.74069 0.35547 0.51791 -0.63900
O 	O 	0.80595 0.28067 0.44524 -0.36500
O 	O 	0.71127 0.18657 0.49424 -0.43800
O 	O 	0.63589 0.35063 0.35088 -0.38300
O 	O 	0.47813 0.22922 0.50491 -0.38200
C 	C 	0.42786 0.22925 0.46657 0.29500
C 	C 	0.76229 0.50761 0.45999 0.28500
O 	O 	0.68034 0.45498 0.46960 -0.39200
O 	O 	0.46431 0.29168 0.43832 -0.39100
O 	O 	0.72858 0.31048 0.37050 -0.36100
C 	C 	0.76974 0.20690 0.46403 0.29400
O 	O 	0.60863 0.30279 0.58854 -0.38500
O 	O 	0.74510 0.32935 0.61536 -0.41900
H 	H 	0.56639 0.20663 0.42613 0.16100
H 	H 	0.77975 0.41754 0.53735 0.17300
C 	C 	0.73729 0.38679 0.76991 -0.04700
C 	C 	0.65743 0.31573 0.78329 -0.09700
C 	C 	0.57727 0.26090 0.74553 0.10500
C 	C 	0.58226 0.26827 0.69375 -0.04800
C 	C 	0.66468 0.33340 0.67976 -0.09600
C 	C 	0.74056 0.39797 0.71860 0.10600
N 	N 	0.81569 0.47145 0.70697 -0.19900
H 	H 	0.79761 0.43225 0.79919 0.05000
H 	H 	0.52253 0.22162 0.66429 0.04900
N 	N 	0.49545 0.20305 0.75883 -0.19900
H 	H 	0.87305 0.51679 0.73543 0.08300
H 	H 	0.81597 0.48679 0.67033 0.08900
H 	H 	0.48806 0.20424 0.79719 0.08700
H 	H 	0.43721 0.15980 0.73059 0.08300
C 	C 	0.57871 0.22753 0.19502 -0.04000
C 	C 	0.65760 0.28259 0.17516 -0.08800
C 	C 	0.74303 0.33637 0.20849 0.10200
C 	C 	0.74709 0.33899 0.26166 -0.04000
C 	C 	0.66750 0.28870 0.28181 -0.08900
C 	C 	0.58298 0.22899 0.24803 0.10200
N 	N 	0.50591 0.17283 0.26626 -0.19900
H 	H 	0.51358 0.18432 0.16921 0.04900
H 	H 	0.81204 0.38359 0.28754 0.05200
N 	N 	0.82102 0.38664 0.18991 -0.20000
H 	H 	0.44322 0.13122 0.24132 0.08300
H 	H 	0.50784 0.16758 0.30495 0.07400
H 	H 	0.82051 0.38472 0.15060 0.08300
H 	H 	0.88367 0.42748 0.21492 0.08400
C 	C 	0.85262 0.77374 0.45311 0.00300
C 	C 	0.83606 0.71668 0.40852 -0.07000
C 	C 	0.81171 0.63154 0.41071 0.05000
C 	C 	0.80180 0.60170 0.45801 -0.09100
C 	C 	0.81566 0.65777 0.50234 -0.00700
C 	C 	0.84141 0.74349 0.50020 -0.00300
S 	S 	0.79334 0.56310 0.35385 -0.04300
S 	S 	0.86062 0.81274 0.55688 -0.04200
H 	H 	0.78229 0.80178 0.56168 0.03400
H 	H 	0.87213 0.57528 0.34864 0.04200
H 	H 	0.84560 0.73995 0.37234 0.05100
H 	H 	0.80588 0.63449 0.53852 0.03400
C 	C 	0.80715 0.15659 0.45968 -0.10000
C 	C 	0.78991 0.10502 0.41230 -0.00100
C 	C 	0.81547 0.04855 0.40879 -0.00600
C 	C 	0.85831 0.04296 0.45315 0.00400
C 	C 	0.87425 0.09360 0.50055 -0.07300
C 	C 	0.85078 0.15149 0.50390 0.06100
S 	S 	0.79427 0.98596 0.34867 -0.03900
S 	S 	0.88097 0.22081 0.56317 -0.11100
H 	H 	0.81184 0.17802 0.59004 0.01300
H 	H 	0.86845 0.03346 0.32593 0.03600
H 	H 	0.75564 0.10790 0.37829 0.03900
H 	H 	0.90890 0.09105 0.53453 0.05200
C 	C 	0.14066 0.07114 0.45531 0.00700
C 	C 	0.17700 0.06961 0.41193 -0.07400
C 	C 	0.27073 0.11909 0.41546 0.05700
C 	C 	0.32910 0.17193 0.46281 -0.09500
C 	C 	0.29263 0.17289 0.50630 -0.00200
C 	C 	0.19884 0.12257 0.50285 -0.00600
S 	S 	0.31393 0.11135 0.36093 -0.07700
S 	S 	0.15496 0.12369 0.55836 -0.04400
H 	H 	0.14190 0.18774 0.56112 0.03400
H 	H 	0.32271 0.04451 0.36055 0.03100
H 	H 	0.13215 0.02883 0.37556 0.05000
H 	H 	0.33732 0.21352 0.54273 0.04300
C 	C 	0.89192 0.80661 0.99075 -0.00800
C 	C 	0.88921 0.77548 0.03668 -0.06200
C 	C 	0.84423 0.68458 0.03603 0.06000
C 	C 	0.80071 0.62392 0.98892 -0.09700
C 	C 	0.80361 0.65516 0.94296 -0.00300
C 	C 	0.84896 0.74611 0.94363 -0.00100
S 	S 	0.84602 0.64797 0.09416 -0.07400
S 	S 	0.85174 0.78361 0.88533 -0.04100
H 	H 	0.78111 0.78775 0.87523 0.03500
H 	H 	0.91909 0.64730 0.10303 0.03400
H 	H 	0.92337 0.82232 0.07286 0.05100
H 	H 	0.76970 0.60846 0.90672 0.04200
C 	C 	0.78020 0.11346 0.98734 -0.10800
C 	C 	0.82550 0.12027 0.94672 -0.00700
C 	C 	0.88755 0.10129 0.95007 -0.00400
C 	C 	0.90691 0.07757 0.99513 -0.00700
C 	C 	0.86649 0.07687 0.03707 -0.06500
C 	C 	0.80131 0.09180 0.03301 0.06100
S 	S 	0.93766 0.10391 0.89680 -0.04700
S 	S 	0.74143 0.07523 0.08350 -0.03700
H 	H 	0.78464 0.15443 0.11703 0.04700
H 	H 	0.01860 0.18677 0.90150 0.02700
H 	H 	0.81113 0.13874 0.91202 0.00700
H 	H 	0.88125 0.05860 0.07176 0.05100
C 	C 	0.18787 0.09810 0.99772 -0.00800
C 	C 	0.21931 0.11113 0.95119 -0.06900
C 	C 	0.30657 0.13777 0.94892 0.05600
C 	C 	0.36413 0.15361 0.99392 -0.10000
C 	C 	0.33358 0.14300 0.04070 -0.00300
C 	C 	0.24637 0.11638 0.04292 0.00300
S 	S 	0.34135 0.14673 0.88914 -0.06900
S 	S 	0.21071 0.10549 0.10244 -0.04600
H 	H 	0.16791 0.01930 0.10934 0.03400
H 	H 	0.38448 0.23249 0.88132 0.03700
H 	H 	0.17416 0.09614 0.91625 0.05000
H 	H 	0.37855 0.15758 0.07562 0.03900
