data_crystal

_cell_length_a 18.60202
_cell_length_b 18.94332
_cell_length_c 36.59261
_cell_angle_alpha 95.42017
_cell_angle_beta  95.42238
_cell_angle_gamma 126.61213

_symmetry_space_group_name_	'P 1'
_symmetry_space_group_name_H-M	'P 1'

loop_
_symmetry_equiv_pos_as_xyz
  x,y,z

loop_
_atom_site_label
_atom_site_type_symbol
_atom_site_fract_x
_atom_site_fract_y
_atom_site_fract_z
_atom_site_charge
C 	C 	0.90489 0.99430 0.96388 0.02400
C 	C 	0.85800 0.90248 0.96462 -0.06700
C 	C 	0.90545 0.86592 0.96469 0.03100
C 	C 	0.99912 0.92129 0.96461 -0.05900
C 	C 	0.04540 0.01212 0.96365 0.02000
C 	C 	0.99807 0.04817 0.96254 -0.05500
H 	H 	0.78592 0.86039 0.96562 0.05100
H 	H 	0.03610 0.89364 0.96543 0.04800
H 	H 	0.03441 0.11887 0.96211 0.04600
C 	C 	0.94800 0.03770 0.49959 0.04600
C 	C 	0.89173 0.94607 0.50054 -0.08400
C 	C 	0.92768 0.89895 0.50022 0.04600
C 	C 	0.01992 0.94327 0.49887 -0.08800
C 	C 	0.07689 0.03522 0.49870 0.04300
C 	C 	0.04096 0.08261 0.49900 -0.08500
H 	H 	0.81989 0.91133 0.50101 0.05500
H 	H 	0.04762 0.90655 0.49850 0.05400
H 	H 	0.08474 0.15363 0.49841 0.05500
Cu	Cu	0.75971 0.34194 0.96210 0.92700
Cu	Cu	0.75138 0.27917 0.04313 0.87000
Cu	Cu	0.61324 0.29495 0.00840 0.89600
Cu	Cu	0.58965 0.33307 0.93228 0.89600
C 	C 	0.69466 0.30770 0.88307 0.30500
O 	O 	0.81190 0.47197 0.96008 -0.35500
C 	C 	0.67321 0.33249 0.09087 0.30600
O 	O 	0.61743 0.26735 0.95716 -0.63700
O 	O 	0.74739 0.35812 0.01475 -0.64300
O 	O 	0.82053 0.28341 0.96771 -0.36700
O 	O 	0.72188 0.19000 0.00290 -0.44300
O 	O 	0.65663 0.34672 0.89056 -0.38700
O 	O 	0.48203 0.22571 0.99920 -0.38000
C 	C 	0.43229 0.22382 0.97027 0.29600
C 	C 	0.76983 0.50462 0.97095 0.28400
O 	O 	0.68518 0.44981 0.97537 -0.39200
O 	O 	0.46989 0.28131 0.94745 -0.39000
O 	O 	0.74816 0.30778 0.90955 -0.36200
C 	C 	0.78018 0.20840 0.98083 0.29300
O 	O 	0.60753 0.30470 0.06224 -0.38700
O 	O 	0.74657 0.33969 0.08634 -0.42100
H 	H 	0.57890 0.20252 0.94650 0.16400
H 	H 	0.78452 0.42101 0.02813 0.17500
Cu	Cu	0.61764 0.20290 0.50664 0.92800
Cu	Cu	0.68648 0.21952 0.42659 0.87100
Cu	Cu	0.66474 0.34974 0.46269 0.89800
Cu	Cu	0.62263 0.36567 0.53829 0.89500
C 	C 	0.64741 0.25970 0.58580 0.30500
O 	O 	0.48574 0.14975 0.50805 -0.36100
C 	C 	0.63564 0.30066 0.37998 0.30600
O 	O 	0.69255 0.34267 0.51337 -0.64000
O 	O 	0.60275 0.21840 0.45445 -0.64100
O 	O 	0.67486 0.14237 0.49989 -0.37100
O 	O 	0.77389 0.24372 0.46715 -0.44100
O 	O 	0.60603 0.29549 0.57850 -0.38700
O 	O 	0.73270 0.47784 0.47383 -0.38400
C 	C 	0.72049 0.52244 0.49915 0.29900
C 	C 	0.45134 0.18957 0.49680 0.28900
O 	O 	0.50612 0.27400 0.49389 -0.39700
O 	O 	0.67717 0.48693 0.52670 -0.39500
O 	O 	0.65092 0.21071 0.55895 -0.36100
C 	C 	0.75224 0.18315 0.48776 0.29500
O 	O 	0.65458 0.35952 0.40935 -0.38300
O 	O 	0.62776 0.22799 0.38362 -0.42100
H 	H 	0.75842 0.38113 0.52435 0.16700
H 	H 	0.53921 0.18150 0.44045 0.17600
C 	C 	0.69222 0.24721 0.69550 -0.00400
C 	C 	0.77143 0.32016 0.71985 -0.03400
C 	C 	0.77675 0.32611 0.75855 -0.03400
C 	C 	0.70286 0.25914 0.77307 -0.00400
C 	C 	0.62588 0.18364 0.74873 -0.03500
C 	C 	0.62058 0.17766 0.71003 -0.03400
C 	C 	0.67912 0.24994 0.65634 0.04400
C 	C 	0.66597 0.25367 0.62390 -0.10300
C 	C 	0.70103 0.27361 0.81226 0.04400
C 	C 	0.69852 0.28790 0.84477 -0.10200
H 	H 	0.82727 0.37405 0.70886 0.03900
H 	H 	0.83671 0.38450 0.77718 0.04300
H 	H 	0.56863 0.13136 0.75972 0.03900
H 	H 	0.55925 0.12085 0.69140 0.04200
C 	C 	0.63514 0.35525 0.19811 -0.00600
C 	C 	0.55449 0.28506 0.20804 -0.03500
C 	C 	0.54902 0.28084 0.24575 -0.03500
C 	C 	0.62417 0.34679 0.27369 -0.00600
C 	C 	0.70272 0.41989 0.26377 -0.03500
C 	C 	0.70821 0.42409 0.22606 -0.03500
C 	C 	0.64743 0.35002 0.15990 0.04400
C 	C 	0.65873 0.34336 0.12819 -0.11100
C 	C 	0.62581 0.33268 0.31169 0.04400
C 	C 	0.62911 0.31903 0.34313 -0.11000
H 	H 	0.49749 0.23180 0.18661 0.03900
H 	H 	0.48788 0.22429 0.25316 0.03900
H 	H 	0.76099 0.47138 0.28518 0.03900
H 	H 	0.77064 0.47883 0.21863 0.03900
C 	C 	0.86848 0.80269 0.50091 -0.00200
C 	C 	0.81093 0.74143 0.46786 -0.06800
C 	C 	0.75946 0.64936 0.46718 0.05300
C 	C 	0.76697 0.61820 0.49979 -0.09200
C 	C 	0.82158 0.67959 0.53321 -0.00500
C 	C 	0.87187 0.77148 0.53398 -0.00200
S 	S 	0.68294 0.57409 0.42593 -0.03800
S 	S 	0.93883 0.84680 0.57648 -0.03800
H 	H 	0.02250 0.86474 0.58105 0.02900
H 	H 	0.59934 0.55450 0.42660 0.03400
H 	H 	0.80674 0.76553 0.44262 0.04900
H 	H 	0.82629 0.65581 0.55847 0.03600
C 	C 	0.90792 0.08496 0.49686 -0.00100
C 	C 	0.89143 0.11463 0.52929 -0.06800
C 	C 	0.84099 0.14734 0.52680 0.05500
C 	C 	0.80639 0.15021 0.49143 -0.10000
C 	C 	0.82555 0.12326 0.45913 -0.00400
C 	C 	0.87595 0.09069 0.46165 -0.00400
S 	S 	0.82375 0.18650 0.56812 -0.03200
S 	S 	0.89663 0.05509 0.42045 -0.04700
H 	H 	0.82946 0.96507 0.40828 0.03200
H 	H 	0.89213 0.27653 0.57939 0.03500
H 	H 	0.91634 0.11056 0.55641 0.05200
H 	H 	0.79997 0.12641 0.43193 0.01500
C 	C 	0.17454 0.08174 0.49874 -0.00200
C 	C 	0.20539 0.09323 0.46469 -0.06900
C 	C 	0.29524 0.12612 0.46350 0.05400
C 	C 	0.35486 0.14756 0.49670 -0.09400
C 	C 	0.32428 0.13710 0.53077 -0.00700
C 	C 	0.23493 0.10531 0.53203 -0.00100
S 	S 	0.33153 0.13791 0.42024 -0.06600
S 	S 	0.19975 0.09642 0.57548 -0.04300
H 	H 	0.16994 0.01516 0.58387 0.03500
H 	H 	0.36991 0.22307 0.41442 0.03900
H 	H 	0.15887 0.07473 0.43903 0.05000
H 	H 	0.37072 0.15544 0.55644 0.04100
C 	C 	0.80939 0.59887 0.97005 -0.08300
C 	C 	0.81814 0.62693 0.93553 -0.01200
C 	C 	0.84125 0.71129 0.93286 0.00000
C 	C 	0.85809 0.76969 0.96520 -0.00200
C 	C 	0.84769 0.74099 0.99962 -0.05700
C 	C 	0.82380 0.65625 0.00224 0.04300
S 	S 	0.84817 0.74285 0.88883 -0.04200
S 	S 	0.81527 0.62404 0.04618 -0.06100
H 	H 	0.72696 0.57869 0.05131 0.03900
H 	H 	0.76524 0.71912 0.87283 0.03400
H 	H 	0.80443 0.58207 0.91051 0.04300
H 	H 	0.86170 0.78599 0.02465 0.04600
C 	C 	0.85914 0.03651 0.96776 0.01000
C 	C 	0.83228 0.05772 0.93606 -0.07200
C 	C 	0.80769 0.11487 0.93984 0.05400
C 	C 	0.81030 0.15178 0.97579 -0.09400
C 	C 	0.83439 0.12817 0.00734 -0.00900
C 	C 	0.85836 0.07074 0.00352 -0.00900
S 	S 	0.77200 0.13781 0.89938 -0.03100
S 	S 	0.88935 0.04385 0.04385 -0.04800
H 	H 	0.98145 0.10542 0.05661 0.03500
H 	H 	0.67909 0.07729 0.88885 0.03400
H 	H 	0.83297 0.03176 0.90850 0.05200
H 	H 	0.83492 0.15494 0.03498 0.01700
C 	C 	0.33327 0.17007 0.96820 -0.09400
C 	C 	0.29945 0.17651 0.99999 0.00300
C 	C 	0.20554 0.12644 0.99866 -0.00300
C 	C 	0.14446 0.07014 0.96502 0.00700
C 	C 	0.17818 0.06421 0.93314 -0.07300
C 	C 	0.27207 0.11305 0.93462 0.05700
S 	S 	0.16521 0.13325 0.03949 -0.04800
S 	S 	0.31178 0.09844 0.89492 -0.06800
H 	H 	0.31896 0.03083 0.89643 0.03300
H 	H 	0.15291 0.19781 0.04025 0.03200
H 	H 	0.34633 0.22054 0.02580 0.04100
H 	H 	0.13113 0.01995 0.90740 0.05200
