data_crystal

_cell_length_a 34.48886
_cell_length_b 32.00750
_cell_length_c 17.34115
_cell_angle_alpha 90.00036
_cell_angle_beta  70.36889
_cell_angle_gamma 118.44003

_symmetry_space_group_name_	'P 1'
_symmetry_space_group_name_H-M	'P 1'

loop_
_symmetry_equiv_pos_as_xyz
  x,y,z

loop_
_atom_site_label
_atom_site_type_symbol
_atom_site_fract_x
_atom_site_fract_y
_atom_site_fract_z
_atom_site_charge
C 	C 	0.01538 0.24301 0.52699 0.00800
C 	C 	0.01538 0.74301 0.52699 0.00800
H 	H 	0.03648 0.32185 0.95171 0.05100
H 	H 	0.03648 0.82185 0.95171 0.05100
C 	C 	0.02409 0.28334 0.96329 0.01300
C 	C 	0.02409 0.78334 0.96329 0.01300
Zn	Zn	0.19582 0.39543 0.76283 1.20100
Zn	Zn	0.15002 0.33628 0.64725 1.21500
Zn	Zn	0.18871 0.30262 0.83701 1.21900
P 	P 	0.23654 0.34417 0.65825 0.31300
P 	P 	0.10536 0.30461 0.82917 0.31500
C 	C 	0.21146 0.23127 0.86750 0.34600
C 	C 	0.22812 0.39662 0.89273 0.36000
C 	C 	0.18366 0.44198 0.64314 0.36600
O 	O 	0.24244 0.39632 0.65837 -0.43200
O 	O 	0.13511 0.35332 0.85643 -0.43300
O 	O 	0.18539 0.30598 0.65838 -0.43400
O 	O 	0.13279 0.27495 0.80893 -0.43600
O 	O 	0.24570 0.32980 0.73623 -0.40900
O 	O 	0.09541 0.31757 0.75111 -0.40300
O 	O 	0.19514 0.25909 0.90274 -0.42400
O 	O 	0.05789 0.25141 0.64615 -0.24100
O 	O 	0.21796 0.22842 0.78903 -0.25800
O 	O 	0.19443 0.35047 0.91468 -0.44200
O 	O 	0.18795 0.40880 0.60140 -0.44400
O 	O 	0.23835 0.42242 0.82236 -0.44900
O 	O 	0.17872 0.43847 0.72169 -0.45100
C 	C 	0.08149 0.28298 0.57562 0.30700
O 	O 	0.12408 0.32005 0.56133 -0.41900
Zn	Zn	0.30123 0.20254 0.27741 1.20300
Zn	Zn	0.36224 0.17453 0.33909 1.21800
Zn	Zn	0.31855 0.14722 0.13483 1.22000
P 	P 	0.27660 0.10220 0.31190 0.31600
P 	P 	0.39739 0.22588 0.16857 0.31300
C 	C 	0.30731 0.07124 0.04674 0.32600
C 	C 	0.26202 0.19568 0.15462 0.35400
C 	C 	0.31999 0.23278 0.42029 0.35600
O 	O 	0.26394 0.14004 0.35534 -0.43100
O 	O 	0.35956 0.24236 0.17910 -0.43600
O 	O 	0.33071 0.11778 0.29439 -0.43500
O 	O 	0.37768 0.17202 0.15124 -0.44400
O 	O 	0.26586 0.09753 0.22853 -0.41000
O 	O 	0.31595 0.11599 0.04016 -0.42900
O 	O 	0.30333 0.04958 0.11570 -0.25400
O 	O 	0.30065 0.19511 0.10618 -0.44400
O 	O 	0.31983 0.19168 0.42843 -0.44200
O 	O 	0.25322 0.19597 0.23452 -0.44500
O 	O 	0.31532 0.24697 0.35439 -0.44300
C 	C 	0.04948 0.26568 0.91355 -0.09000
H 	H 	0.03630 0.22700 0.92371 0.07300
C 	C 	0.05888 0.28003 0.51566 -0.13500
H 	H 	0.07745 0.30974 0.46271 0.08300
C 	C 	0.23824 0.54323 0.37780 -0.07500
C 	C 	0.22920 0.53691 0.46301 -0.02400
C 	C 	0.20220 0.49027 0.51197 0.03800
C 	C 	0.19245 0.48308 0.60233 -0.19200
H 	H 	0.18870 0.45888 0.48326 0.04200
H 	H 	0.22410 0.51191 0.34940 0.07300
H 	H 	0.19360 0.51217 0.63564 0.10200
H 	H 	0.24371 0.56828 0.49114 0.05100
C 	C 	0.24699 0.41847 0.94732 -0.16800
C 	C 	0.27718 0.47189 0.93204 0.01300
C 	C 	0.28211 0.49469 0.99573 0.02500
C 	C 	0.30173 0.54775 0.98408 -0.16000
H 	H 	0.26795 0.47368 0.05782 0.04200
H 	H 	0.23714 0.39704 0.00652 0.08700
H 	H 	0.30816 0.56728 0.92565 0.09400
H 	H 	0.29245 0.49296 0.86958 0.05100
C 	C 	0.23411 0.20059 0.12155 -0.17100
C 	C 	0.24143 0.19899 0.03249 -0.02100
C 	C 	0.21729 0.21040 0.99826 0.05200
C 	C 	0.22324 0.20730 0.91006 -0.18300
H 	H 	0.19311 0.22201 0.03550 0.03300
H 	H 	0.20458 0.20458 0.16152 0.09400
H 	H 	0.23837 0.18595 0.87879 0.09800
H 	H 	0.26610 0.18802 0.99496 0.06300
C 	C 	0.27971 0.34451 0.56472 -0.07500
C 	C 	0.29325 0.31159 0.56421 -0.01700
C 	C 	0.31226 0.29738 0.48564 0.03700
C 	C 	0.31641 0.25601 0.48821 -0.17100
H 	H 	0.31897 0.31659 0.42664 0.04400
H 	H 	0.28812 0.36556 0.50632 0.06400
H 	H 	0.31419 0.24000 0.54595 0.10000
H 	H 	0.28518 0.29107 0.62297 0.06700
Zn	Zn	0.19582 0.89543 0.76283 1.20200
Zn	Zn	0.15002 0.83628 0.64725 1.21600
Zn	Zn	0.18871 0.80262 0.83701 1.21900
P 	P 	0.23654 0.84417 0.65825 0.31300
P 	P 	0.10537 0.80461 0.82917 0.31500
C 	C 	0.21146 0.73127 0.86750 0.34600
C 	C 	0.22812 0.89662 0.89273 0.36000
C 	C 	0.18366 0.94198 0.64314 0.36600
O 	O 	0.24244 0.89632 0.65837 -0.43200
O 	O 	0.13511 0.85333 0.85643 -0.43300
O 	O 	0.18539 0.80598 0.65838 -0.43400
O 	O 	0.13279 0.77495 0.80893 -0.43600
O 	O 	0.24570 0.82980 0.73623 -0.40900
O 	O 	0.09541 0.81756 0.75111 -0.40300
O 	O 	0.19514 0.75910 0.90274 -0.42400
O 	O 	0.05789 0.75141 0.64615 -0.24100
O 	O 	0.21796 0.72842 0.78903 -0.25800
O 	O 	0.19443 0.85047 0.91468 -0.44200
O 	O 	0.18795 0.90880 0.60140 -0.44400
O 	O 	0.23835 0.92242 0.82236 -0.44900
O 	O 	0.17872 0.93847 0.72169 -0.45100
C 	C 	0.08149 0.78298 0.57562 0.30700
O 	O 	0.12408 0.82005 0.56133 -0.41900
Zn	Zn	0.30123 0.70254 0.27741 1.20300
Zn	Zn	0.36224 0.67453 0.33909 1.21800
Zn	Zn	0.31855 0.64722 0.13483 1.22000
P 	P 	0.27660 0.60220 0.31190 0.31600
P 	P 	0.39739 0.72588 0.16857 0.31300
C 	C 	0.30731 0.57124 0.04674 0.32600
C 	C 	0.26202 0.69568 0.15462 0.35400
C 	C 	0.31999 0.73278 0.42029 0.35600
O 	O 	0.26394 0.64004 0.35534 -0.43100
O 	O 	0.35956 0.74236 0.17910 -0.43600
O 	O 	0.33071 0.61778 0.29439 -0.43500
O 	O 	0.37768 0.67202 0.15124 -0.44400
O 	O 	0.26586 0.59753 0.22853 -0.41000
O 	O 	0.31595 0.61599 0.04016 -0.42900
O 	O 	0.30333 0.54958 0.11570 -0.25400
O 	O 	0.30065 0.69511 0.10618 -0.44400
O 	O 	0.31983 0.69168 0.42843 -0.44100
O 	O 	0.25322 0.69597 0.23452 -0.44500
O 	O 	0.31532 0.74697 0.35439 -0.44300
C 	C 	0.04948 0.76568 0.91355 -0.09000
H 	H 	0.03630 0.72700 0.92371 0.07300
C 	C 	0.05888 0.78003 0.51566 -0.13500
H 	H 	0.07745 0.80974 0.46271 0.08300
C 	C 	0.23823 0.04323 0.37780 -0.07400
C 	C 	0.22920 0.03691 0.46301 -0.02500
C 	C 	0.20220 0.99027 0.51197 0.03800
C 	C 	0.19245 0.98308 0.60233 -0.19100
H 	H 	0.18870 0.95888 0.48326 0.04200
H 	H 	0.22410 0.01191 0.34940 0.07300
H 	H 	0.19360 0.01217 0.63564 0.10100
H 	H 	0.24371 0.06828 0.49114 0.05100
C 	C 	0.24699 0.91847 0.94732 -0.16800
C 	C 	0.27718 0.97189 0.93204 0.01200
C 	C 	0.28211 0.99469 0.99573 0.02600
C 	C 	0.30173 0.04775 0.98408 -0.16200
H 	H 	0.26795 0.97368 0.05782 0.04200
H 	H 	0.23714 0.89704 0.00652 0.08700
H 	H 	0.30816 0.06728 0.92565 0.09400
H 	H 	0.29245 0.99296 0.86958 0.05200
C 	C 	0.23411 0.70059 0.12155 -0.17100
C 	C 	0.24143 0.69899 0.03249 -0.02100
C 	C 	0.21729 0.71040 0.99826 0.05300
C 	C 	0.22324 0.70730 0.91006 -0.18400
H 	H 	0.19311 0.72201 0.03550 0.03300
H 	H 	0.20458 0.70458 0.16152 0.09400
H 	H 	0.23837 0.68595 0.87879 0.09800
H 	H 	0.26610 0.68802 0.99496 0.06400
C 	C 	0.27971 0.84450 0.56472 -0.07500
C 	C 	0.29325 0.81159 0.56421 -0.01700
C 	C 	0.31226 0.79738 0.48564 0.03700
C 	C 	0.31641 0.75601 0.48821 -0.17000
H 	H 	0.31897 0.81659 0.42664 0.04400
H 	H 	0.28812 0.86556 0.50632 0.06400
H 	H 	0.31419 0.74000 0.54595 0.10000
H 	H 	0.28518 0.79107 0.62297 0.06700
O 	O 	0.39675 0.16995 0.40359 -0.41800
O 	O 	0.39675 0.66995 0.40359 -0.41800
O 	O 	0.41000 0.23047 0.25005 -0.40300
O 	O 	0.42875 0.25059 0.40301 -0.24800
C 	C 	0.42500 0.20905 0.42449 0.30800
O 	O 	0.41000 0.73047 0.25005 -0.40300
O 	O 	0.42875 0.75060 0.40301 -0.24800
C 	C 	0.42500 0.70905 0.42449 0.30800
O 	O 	0.55789 0.25141 0.64615 -0.24100
C 	C 	0.45090 0.26611 0.08061 -0.08200
C 	C 	0.47950 0.25045 0.03513 -0.02000
C 	C 	0.52409 0.28334 0.96329 0.01500
H 	H 	0.53648 0.32185 0.95171 0.05200
H 	H 	0.46056 0.30367 0.06643 0.07000
H 	H 	0.46987 0.21297 0.05083 0.05100
C 	C 	0.55888 0.28003 0.51566 -0.13600
C 	C 	0.51538 0.24301 0.52699 0.01200
C 	C 	0.49111 0.24496 0.47231 0.01200
C 	C 	0.45088 0.20591 0.47461 -0.13600
H 	H 	0.50594 0.27878 0.43044 0.04800
H 	H 	0.43740 0.17133 0.51275 0.08400
H 	H 	0.49723 0.21219 0.57781 0.05000
O 	O 	0.55789 0.75141 0.64615 -0.24100
C 	C 	0.45090 0.76611 0.08061 -0.08200
C 	C 	0.47950 0.75045 0.03513 -0.02000
C 	C 	0.52409 0.78334 0.96329 0.01500
H 	H 	0.53648 0.82185 0.95171 0.05200
H 	H 	0.46056 0.80367 0.06643 0.07000
H 	H 	0.46987 0.71297 0.05083 0.05100
C 	C 	0.55888 0.78003 0.51566 -0.13600
C 	C 	0.51538 0.74301 0.52699 0.01200
C 	C 	0.49111 0.74496 0.47231 0.01200
C 	C 	0.45088 0.70591 0.47461 -0.13600
H 	H 	0.50594 0.77878 0.43044 0.04800
H 	H 	0.43740 0.67133 0.51275 0.08400
H 	H 	0.49723 0.71219 0.57781 0.05000
P 	P 	0.60537 0.30461 0.82917 0.31500
O 	O 	0.59540 0.31757 0.75111 -0.40300
C 	C 	0.58149 0.28298 0.57562 0.30700
O 	O 	0.62408 0.32005 0.56133 -0.41900
C 	C 	0.54948 0.26568 0.91355 -0.09000
H 	H 	0.53629 0.22700 0.92371 0.07300
H 	H 	0.57745 0.30974 0.46271 0.08300
P 	P 	0.60537 0.80461 0.82917 0.31500
O 	O 	0.59540 0.81756 0.75111 -0.40300
C 	C 	0.58149 0.78298 0.57562 0.30700
O 	O 	0.62408 0.82005 0.56133 -0.41900
C 	C 	0.54948 0.76568 0.91355 -0.09000
H 	H 	0.53630 0.72700 0.92371 0.07400
H 	H 	0.57745 0.80974 0.46271 0.08300
Zn	Zn	0.65002 0.33628 0.64725 1.21600
O 	O 	0.63511 0.35332 0.85643 -0.43300
O 	O 	0.63279 0.27495 0.80893 -0.43600
Zn	Zn	0.65002 0.83628 0.64725 1.21600
O 	O 	0.63511 0.85333 0.85643 -0.43300
O 	O 	0.63279 0.77495 0.80893 -0.43600
Zn	Zn	0.69582 0.39543 0.76283 1.20200
Zn	Zn	0.68871 0.30262 0.83701 1.21900
C 	C 	0.68366 0.44198 0.64314 0.36600
O 	O 	0.68539 0.30598 0.65838 -0.43400
O 	O 	0.69514 0.25909 0.90274 -0.42400
O 	O 	0.69443 0.35047 0.91468 -0.44200
O 	O 	0.68795 0.40880 0.60140 -0.44400
O 	O 	0.67872 0.43847 0.72169 -0.45100
C 	C 	0.70220 0.49027 0.51197 0.03800
C 	C 	0.69245 0.48308 0.60233 -0.19100
H 	H 	0.68870 0.45888 0.48326 0.04200
H 	H 	0.69360 0.51217 0.63564 0.10200
H 	H 	0.69311 0.22201 0.03550 0.03300
H 	H 	0.70458 0.20458 0.16152 0.09400
Zn	Zn	0.69582 0.89543 0.76283 1.20200
Zn	Zn	0.68871 0.80262 0.83701 1.21900
C 	C 	0.68366 0.94198 0.64314 0.36600
O 	O 	0.68539 0.80598 0.65838 -0.43400
O 	O 	0.69514 0.75910 0.90274 -0.42400
O 	O 	0.69443 0.85047 0.91468 -0.44200
O 	O 	0.68795 0.90880 0.60140 -0.44400
O 	O 	0.67872 0.93847 0.72169 -0.45100
C 	C 	0.70220 0.99027 0.51197 0.03800
C 	C 	0.69245 0.98308 0.60233 -0.19100
H 	H 	0.68870 0.95888 0.48326 0.04200
H 	H 	0.69360 0.01217 0.63564 0.10100
H 	H 	0.69311 0.72201 0.03550 0.03300
H 	H 	0.70458 0.70458 0.16152 0.09400
P 	P 	0.73654 0.34417 0.65825 0.31300
C 	C 	0.71146 0.23127 0.86750 0.34600
C 	C 	0.72812 0.39662 0.89273 0.36000
O 	O 	0.71796 0.22842 0.78903 -0.25800
C 	C 	0.72920 0.53691 0.46301 -0.02400
H 	H 	0.72410 0.51191 0.34940 0.07300
C 	C 	0.73411 0.20059 0.12155 -0.17100
C 	C 	0.71729 0.21040 0.99826 0.05200
C 	C 	0.72324 0.20730 0.91006 -0.18300
P 	P 	0.73654 0.84417 0.65825 0.31300
C 	C 	0.71146 0.73127 0.86750 0.34600
C 	C 	0.72812 0.89662 0.89273 0.36000
O 	O 	0.71796 0.72842 0.78903 -0.25800
C 	C 	0.72920 0.03691 0.46301 -0.02500
H 	H 	0.72410 0.01191 0.34940 0.07300
C 	C 	0.73411 0.70059 0.12155 -0.17100
C 	C 	0.71729 0.71040 0.99826 0.05200
C 	C 	0.72324 0.70730 0.91006 -0.18300
O 	O 	0.74244 0.39632 0.65837 -0.43200
O 	O 	0.74570 0.32980 0.73623 -0.40900
O 	O 	0.73835 0.42242 0.82236 -0.44900
O 	O 	0.75322 0.19597 0.23452 -0.44500
C 	C 	0.73823 0.54323 0.37780 -0.07400
H 	H 	0.74371 0.56828 0.49114 0.05100
C 	C 	0.74699 0.41847 0.94732 -0.16800
H 	H 	0.73714 0.39704 0.00652 0.08700
C 	C 	0.74143 0.19899 0.03249 -0.02100
H 	H 	0.73837 0.18595 0.87879 0.09800
O 	O 	0.74244 0.89632 0.65837 -0.43200
O 	O 	0.74570 0.82980 0.73623 -0.40900
O 	O 	0.73835 0.92242 0.82236 -0.44900
O 	O 	0.75322 0.69597 0.23452 -0.44500
C 	C 	0.73824 0.04323 0.37780 -0.07400
H 	H 	0.74371 0.06828 0.49114 0.05100
C 	C 	0.74699 0.91847 0.94732 -0.16800
H 	H 	0.73714 0.89704 0.00652 0.08700
C 	C 	0.74143 0.69899 0.03249 -0.02100
H 	H 	0.73837 0.68595 0.87879 0.09800
H 	H 	0.00594 0.27878 0.43044 0.04700
H 	H 	0.00594 0.77878 0.43044 0.04700
C 	C 	0.76202 0.19568 0.15462 0.35500
O 	O 	0.76394 0.14004 0.35534 -0.43100
O 	O 	0.76586 0.09753 0.22853 -0.41000
H 	H 	0.76611 0.18802 0.99496 0.06300
C 	C 	0.76202 0.69568 0.15462 0.35400
O 	O 	0.76394 0.64004 0.35534 -0.43100
O 	O 	0.76586 0.59753 0.22853 -0.41000
H 	H 	0.76611 0.68802 0.99496 0.06400
P 	P 	0.77660 0.10220 0.31190 0.31600
H 	H 	0.76795 0.47368 0.05782 0.04200
C 	C 	0.77971 0.34451 0.56472 -0.07500
P 	P 	0.77660 0.60220 0.31190 0.31600
H 	H 	0.76795 0.97368 0.05782 0.04200
C 	C 	0.77971 0.84450 0.56472 -0.07500
C 	C 	0.77718 0.47189 0.93204 0.01300
C 	C 	0.78211 0.49469 0.99573 0.02500
H 	H 	0.78812 0.36556 0.50632 0.06400
H 	H 	0.78518 0.29107 0.62297 0.06700
C 	C 	0.77718 0.97189 0.93204 0.01200
C 	C 	0.78211 0.99469 0.99573 0.02600
H 	H 	0.78812 0.86556 0.50632 0.06400
H 	H 	0.78518 0.79107 0.62297 0.06700
C 	C 	0.79325 0.31159 0.56421 -0.01700
C 	C 	0.79325 0.81159 0.56421 -0.01700
Zn	Zn	0.80123 0.20254 0.27741 1.20300
O 	O 	0.80065 0.19511 0.10618 -0.44400
H 	H 	0.79245 0.49296 0.86958 0.05100
Zn	Zn	0.80123 0.70254 0.27741 1.20300
O 	O 	0.80065 0.69511 0.10618 -0.44400
H 	H 	0.79245 0.99296 0.86958 0.05200
O 	O 	0.80333 0.04958 0.11570 -0.25400
C 	C 	0.80173 0.54775 0.98408 -0.16000
O 	O 	0.80333 0.54958 0.11570 -0.25400
C 	C 	0.80173 0.04775 0.98408 -0.16200
C 	C 	0.80731 0.07124 0.04674 0.32700
O 	O 	0.81532 0.24697 0.35439 -0.44300
H 	H 	0.80816 0.56728 0.92565 0.09400
C 	C 	0.81226 0.29738 0.48564 0.03700
C 	C 	0.80731 0.57124 0.04674 0.32600
O 	O 	0.81532 0.74697 0.35439 -0.44300
H 	H 	0.80816 0.06728 0.92565 0.09400
C 	C 	0.81226 0.79738 0.48564 0.03700
Zn	Zn	0.81855 0.14722 0.13483 1.22000
O 	O 	0.81595 0.11599 0.04016 -0.42900
C 	C 	0.81641 0.25601 0.48821 -0.17000
H 	H 	0.81897 0.31659 0.42664 0.04400
H 	H 	0.81419 0.24000 0.54595 0.10000
Zn	Zn	0.81855 0.64722 0.13483 1.22000
O 	O 	0.81595 0.61599 0.04016 -0.42900
C 	C 	0.81641 0.75601 0.48821 -0.17000
H 	H 	0.81897 0.81659 0.42664 0.04400
H 	H 	0.81419 0.74000 0.54595 0.10000
C 	C 	0.81999 0.23278 0.42029 0.35600
O 	O 	0.81983 0.19168 0.42843 -0.44200
C 	C 	0.81999 0.73278 0.42029 0.35600
O 	O 	0.81983 0.69168 0.42843 -0.44100
O 	O 	0.83071 0.11778 0.29439 -0.43500
O 	O 	0.83071 0.61778 0.29439 -0.43500
O 	O 	0.85955 0.24236 0.17910 -0.43600
O 	O 	0.85955 0.74236 0.17910 -0.43600
Zn	Zn	0.86224 0.17453 0.33909 1.21800
Zn	Zn	0.86224 0.67453 0.33909 1.21800
O 	O 	0.87768 0.17202 0.15124 -0.44400
O 	O 	0.87768 0.67202 0.15124 -0.44400
P 	P 	0.89739 0.22588 0.16857 0.31300
O 	O 	0.89675 0.16995 0.40359 -0.41800
P 	P 	0.89739 0.72588 0.16857 0.31300
O 	O 	0.89675 0.66995 0.40359 -0.41800
O 	O 	0.91000 0.23047 0.25005 -0.40300
O 	O 	0.91000 0.73047 0.25005 -0.40300
C 	C 	0.92500 0.20905 0.42449 0.30900
C 	C 	0.92500 0.70905 0.42449 0.30900
O 	O 	0.92875 0.25059 0.40301 -0.24800
O 	O 	0.92875 0.75060 0.40301 -0.24800
H 	H 	0.93740 0.17133 0.51275 0.08400
H 	H 	0.93740 0.67133 0.51275 0.08400
C 	C 	0.95090 0.26611 0.08061 -0.08300
C 	C 	0.95088 0.20591 0.47461 -0.13700
C 	C 	0.95090 0.76611 0.08061 -0.08300
C 	C 	0.95088 0.70591 0.47461 -0.13700
H 	H 	0.96056 0.30367 0.06643 0.07000
H 	H 	0.96056 0.80367 0.06643 0.07000
H 	H 	0.96987 0.21297 0.05083 0.05000
H 	H 	0.96987 0.71297 0.05083 0.05000
C 	C 	0.97950 0.25045 0.03513 -0.01900
C 	C 	0.97950 0.75045 0.03513 -0.01900
C 	C 	0.99111 0.24496 0.47231 0.01500
C 	C 	0.99111 0.74496 0.47231 0.01500
H 	H 	0.99723 0.21219 0.57781 0.05100
H 	H 	0.99723 0.71219 0.57781 0.05100
