data_crystal

_cell_length_a 23.40193
_cell_length_b 20.80753
_cell_length_c 48.07947
_cell_angle_alpha 89.89251
_cell_angle_beta  89.89463
_cell_angle_gamma 119.43562

_symmetry_space_group_name_	'P 1'
_symmetry_space_group_name_H-M	'P 1'

loop_
_symmetry_equiv_pos_as_xyz
  x,y,z

loop_
_atom_site_label
_atom_site_type_symbol
_atom_site_fract_x
_atom_site_fract_y
_atom_site_fract_z
_atom_site_charge
C 	C 	0.60069 0.27408 0.86846 0.29000
C 	C 	0.75808 0.55246 0.92613 0.31400
C 	C 	0.78118 0.37161 0.87991 0.31200
C 	C 	0.57430 0.44383 0.91513 0.34500
C 	C 	0.75185 0.37131 0.97186 0.36300
C 	C 	0.56997 0.24870 0.96055 0.34800
Ni	Ni	0.68667 0.43071 0.88637 1.11800
Ni	Ni	0.65804 0.41315 0.95259 1.13300
Ni	Ni	0.67913 0.29200 0.92102 1.12700
O 	O 	0.61384 0.34323 0.86476 -0.35200
O 	O 	0.64266 0.25804 0.88145 -0.35500
O 	O 	0.74517 0.42698 0.96358 -0.37500
O 	O 	0.76641 0.51380 0.90677 -0.36500
O 	O 	0.70494 0.52196 0.94164 -0.36200
O 	O 	0.59069 0.22861 0.93821 -0.36500
O 	O 	0.74928 0.39953 0.86664 -0.35400
O 	O 	0.77086 0.35673 0.90642 -0.37300
O 	O 	0.60667 0.31405 0.97263 -0.34700
O 	O 	0.62547 0.47478 0.89767 -0.36400
O 	O 	0.57629 0.41113 0.93857 -0.35600
O 	O 	0.71918 0.30641 0.95965 -0.36400
O 	O 	0.65856 0.36937 0.91805 -0.71800
H 	H 	0.61108 0.34001 0.91460 0.17400
C 	C 	0.88198 0.52827 0.56294 0.33600
C 	C 	0.64885 0.25547 0.53372 0.35200
C 	C 	0.72132 0.50181 0.53345 0.36300
C 	C 	0.80286 0.28075 0.56591 0.29600
C 	C 	0.61525 0.36133 0.60718 0.31400
C 	C 	0.77294 0.40899 0.63934 0.29900
Ni	Ni	0.77332 0.39466 0.53645 1.11900
Ni	Ni	0.69840 0.30203 0.59182 1.12900
Ni	Ni	0.74979 0.47481 0.58982 1.13100
O 	O 	0.86851 0.47413 0.54515 -0.35700
O 	O 	0.83658 0.54615 0.57026 -0.33800
O 	O 	0.62170 0.31846 0.58923 -0.37600
O 	O 	0.67582 0.32544 0.52763 -0.37600
O 	O 	0.66234 0.23500 0.55766 -0.33100
O 	O 	0.79772 0.46717 0.62267 -0.36100
O 	O 	0.76273 0.48370 0.52226 -0.35500
O 	O 	0.69514 0.47564 0.55772 -0.36800
O 	O 	0.72294 0.34344 0.63164 -0.35800
O 	O 	0.79110 0.30480 0.54188 -0.34400
O 	O 	0.77348 0.28096 0.58956 -0.35700
O 	O 	0.66571 0.42662 0.61286 -0.36700
O 	O 	0.75583 0.39382 0.57469 -0.71800
H 	H 	0.79784 0.40262 0.58260 0.17800
C 	C 	0.96995 0.86298 0.72177 0.29700
C 	C 	0.18052 0.11760 0.77851 0.31400
C 	C 	0.98196 0.92840 0.79403 0.30100
C 	C 	0.18432 0.09576 0.70702 0.29800
C 	C 	0.99613 0.13878 0.77156 0.31000
C 	C 	0.98518 0.08987 0.69471 0.28500
Ni	Ni	0.08804 0.98105 0.75046 1.09600
Ni	Ni	0.09669 0.13800 0.73591 1.12400
Ni	Ni	0.95668 0.99441 0.74414 1.10500
O 	O 	0.03475 0.90323 0.72048 -0.37700
O 	O 	0.93299 0.88787 0.73388 -0.37400
O 	O 	0.05820 0.15633 0.77025 -0.37200
O 	O 	0.12957 0.05320 0.78305 -0.36200
O 	O 	0.17867 0.16020 0.75864 -0.36800
O 	O 	0.94811 0.02184 0.70476 -0.35000
O 	O 	0.01598 0.90888 0.77782 -0.38300
O 	O 	0.96296 0.97470 0.78511 -0.38900
O 	O 	0.02972 0.14415 0.71047 -0.37000
O 	O 	0.17194 0.04134 0.72512 -0.35100
O 	O 	0.14430 0.12328 0.70373 -0.37200
O 	O 	0.95225 0.08514 0.75599 -0.36600
O 	O 	0.04774 0.03305 0.73724 -0.70300
H 	H 	0.04607 0.02137 0.71730 0.17400
C 	C 	0.27535 0.77028 0.40836 0.30000
C 	C 	0.44782 0.69418 0.47653 0.36600
C 	C 	0.45488 0.84586 0.40957 0.34000
C 	C 	0.26432 0.61794 0.48306 0.34800
C 	C 	0.44035 0.63988 0.39282 0.31300
C 	C 	0.25088 0.53465 0.39185 0.29500
Ni	Ni	0.36393 0.75350 0.45303 1.11900
Ni	Ni	0.34461 0.59285 0.43838 1.12700
Ni	Ni	0.35065 0.69942 0.38909 1.12700
O 	O 	0.31899 0.80170 0.42890 -0.32900
O 	O 	0.27410 0.71761 0.39242 -0.36500
O 	O 	0.39158 0.58221 0.40494 -0.37000
O 	O 	0.41202 0.72463 0.48304 -0.36300
O 	O 	0.43552 0.65418 0.45413 -0.38200
O 	O 	0.29343 0.59245 0.37659 -0.36200
O 	O 	0.45236 0.81214 0.43270 -0.36500
O 	O 	0.40855 0.81212 0.39090 -0.34400
O 	O 	0.25909 0.52960 0.41899 -0.35800
O 	O 	0.27969 0.68544 0.47493 -0.36200
O 	O 	0.30130 0.58744 0.47643 -0.36000
O 	O 	0.43342 0.69542 0.38418 -0.37500
O 	O 	0.33717 0.67589 0.42774 -0.72200
H 	H 	0.28913 0.65412 0.42886 0.17400
C 	C 	0.30730 0.54524 0.03416 0.35000
C 	C 	0.19482 0.57475 0.14197 0.31500
C 	C 	0.14262 0.43870 0.06533 0.31500
C 	C 	0.37023 0.68179 0.11896 0.29100
C 	C 	0.11915 0.62926 0.07208 0.36700
C 	C 	0.29373 0.75946 0.04457 0.34900
Ni	Ni	0.26237 0.54024 0.09594 1.11800
Ni	Ni	0.24798 0.68692 0.09881 1.12400
Ni	Ni	0.20907 0.59253 0.04331 1.13000
O 	O 	0.29009 0.50870 0.05850 -0.34400
O 	O 	0.28865 0.59377 0.02702 -0.36300
O 	O 	0.17146 0.68967 0.08042 -0.38000
O 	O 	0.23821 0.55359 0.13685 -0.35600
O 	O 	0.17913 0.60680 0.12262 -0.36400
O 	O 	0.24158 0.70099 0.03369 -0.36600
O 	O 	0.16432 0.46600 0.08990 -0.36600
O 	O 	0.16810 0.47990 0.04306 -0.35900
O 	O 	0.30753 0.76349 0.07151 -0.37100
O 	O 	0.35673 0.61966 0.10606 -0.34400
O 	O 	0.32356 0.69954 0.12459 -0.36500
O 	O 	0.12472 0.57656 0.05975 -0.36800
O 	O 	0.25669 0.61610 0.07724 -0.72000
H 	H 	0.30216 0.64634 0.07056 0.18100
C 	C 	0.82201 0.87396 0.28093 0.28800
C 	C 	0.00055 0.04949 0.18913 0.30400
C 	C 	0.81191 0.84795 0.20416 0.31400
C 	C 	0.00977 0.09502 0.26786 0.28600
C 	C 	0.00883 0.84121 0.21187 0.30500
C 	C 	0.01544 0.89149 0.28584 0.27500
Ni	Ni	0.89757 0.98460 0.23371 1.10500
Ni	Ni	0.03682 0.98606 0.23661 1.11000
Ni	Ni	0.90284 0.83363 0.24497 1.12300
O 	O 	0.81856 0.91307 0.25957 -0.36700
O 	O 	0.85178 0.83396 0.27859 -0.37200
O 	O 	0.05321 0.90448 0.22263 -0.37600
O 	O 	0.96536 0.06383 0.20674 -0.34400
O 	O 	0.02512 0.00708 0.19636 -0.34400
O 	O 	0.97365 0.83504 0.27008 -0.37500
O 	O 	0.85917 0.91511 0.20019 -0.38700
O 	O 	0.81863 0.80541 0.22274 -0.36600
O 	O 	0.05130 0.95896 0.27512 -0.38200
O 	O 	0.94523 0.06196 0.26459 -0.33900
O 	O 	0.04758 0.08565 0.24935 -0.35000
O 	O 	0.94702 0.82440 0.21082 -0.38100
O 	O 	0.94514 0.93842 0.24464 -0.72200
H 	H 	0.94670 0.94766 0.26478 0.15000
C 	C 	0.99136 0.10058 0.11463 -0.02900
C 	C 	0.04691 0.17156 0.11294 0.02400
C 	C 	0.09032 0.19893 0.13551 -0.04900
C 	C 	0.07707 0.15794 0.16012 0.03100
C 	C 	0.01961 0.08887 0.16236 -0.07000
C 	C 	0.97780 0.05978 0.13939 0.02100
C 	C 	0.05599 0.22147 0.08923 0.02900
C 	C 	0.01621 0.25437 0.08760 -0.05200
C 	C 	0.03915 0.32209 0.07386 0.03200
C 	C 	0.10308 0.35821 0.06273 -0.07100
C 	C 	0.13603 0.31779 0.05911 0.01400
C 	C 	0.11288 0.24948 0.07252 -0.03400
C 	C 	0.99860 0.35640 0.07277 0.11200
C 	C 	0.14960 0.21065 0.07042 0.10900
C 	C 	0.94805 0.06941 0.09113 0.11200
C 	C 	0.12196 0.18787 0.18320 0.08700
N 	N 	0.96589 0.38368 0.07185 -0.08100
N 	N 	0.17901 0.17948 0.06876 -0.08700
N 	N 	0.15795 0.21185 0.20169 -0.10000
N 	N 	0.91337 0.04448 0.07229 -0.08800
H 	H 	0.93409 0.00605 0.14097 0.06200
H 	H 	0.13331 0.25333 0.13420 0.06100
H 	H 	0.97004 0.23041 0.09887 0.07100
H 	H 	0.18326 0.34311 0.04864 0.05600
C 	C 	0.64937 0.73682 0.16723 -0.04100
C 	C 	0.62321 0.78515 0.16849 0.03100
C 	C 	0.65835 0.85315 0.18193 -0.06800
C 	C 	0.71945 0.87395 0.19390 0.05100
C 	C 	0.74619 0.82588 0.19252 -0.09200
C 	C 	0.71045 0.75722 0.17940 0.02300
C 	C 	0.55779 0.76396 0.15662 0.02200
C 	C 	0.50117 0.71661 0.17169 -0.05000
C 	C 	0.43888 0.69391 0.16053 0.02700
C 	C 	0.43284 0.71981 0.13410 -0.06200
C 	C 	0.48953 0.77058 0.11976 0.01300
C 	C 	0.55192 0.79240 0.13076 -0.02900
C 	C 	0.38154 0.64094 0.17569 0.08700
C 	C 	0.60960 0.84223 0.11505 0.10700
C 	C 	0.61420 0.66667 0.15324 0.10600
C 	C 	0.75371 0.94424 0.20791 0.01600
N 	N 	0.33585 0.59830 0.18791 -0.09900
N 	N 	0.65585 0.88216 0.10247 -0.10100
N 	N 	0.78097 0.00065 0.21905 -0.08600
N 	N 	0.58598 0.61047 0.14203 -0.09400
H 	H 	0.73060 0.72017 0.17827 0.04900
H 	H 	0.63792 0.88994 0.18313 0.06200
H 	H 	0.50565 0.69602 0.19185 0.06000
H 	H 	0.48514 0.79035 0.09941 0.06500
C 	C 	0.06445 0.70342 0.22913 -0.03800
C 	C 	0.07312 0.68173 0.20243 0.02900
C 	C 	0.05437 0.70704 0.17889 -0.05900
C 	C 	0.03050 0.75678 0.18175 0.03300
C 	C 	0.02583 0.78207 0.20838 -0.08200
C 	C 	0.04212 0.75439 0.23194 0.01300
C 	C 	0.10720 0.63808 0.19862 0.02500
C 	C 	0.07160 0.56499 0.18924 -0.04400
C 	C 	0.10432 0.53250 0.17581 0.03800
C 	C 	0.17207 0.57520 0.17034 -0.07400
C 	C 	0.20849 0.63965 0.18590 0.01100
C 	C 	0.17637 0.67302 0.19917 -0.03600
C 	C 	0.06695 0.45959 0.16411 0.10900
C 	C 	0.21460 0.74537 0.21125 0.09600
C 	C 	0.07918 0.67440 0.25374 0.09700
C 	C 	0.01265 0.78305 0.15724 0.08100
N 	N 	0.03706 0.40120 0.15466 -0.09400
N 	N 	0.24519 0.80335 0.22094 -0.10800
N 	N 	0.99834 0.80410 0.13760 -0.09300
N 	N 	0.09101 0.65121 0.27346 -0.10400
H 	H 	0.03874 0.77370 0.25244 0.04700
H 	H 	0.06011 0.68954 0.15832 0.07600
H 	H 	0.01844 0.53576 0.19046 0.07000
H 	H 	0.26146 0.66998 0.18376 0.05000
C 	C 	0.66420 0.80517 0.32008 -0.03800
C 	C 	0.67838 0.77495 0.34369 0.02600
C 	C 	0.74345 0.79402 0.34935 -0.05400
C 	C 	0.79348 0.83866 0.33081 0.02900
C 	C 	0.77768 0.85826 0.30495 -0.07200
C 	C 	0.71370 0.84563 0.30058 0.01300
C 	C 	0.62506 0.72169 0.36203 0.02400
C 	C 	0.57661 0.65428 0.35104 -0.04900
C 	C 	0.51569 0.61526 0.36443 0.03200
C 	C 	0.50397 0.64383 0.38894 -0.06700
C 	C 	0.55756 0.69981 0.40311 0.01900
C 	C 	0.61730 0.74157 0.38924 -0.02800
C 	C 	0.46363 0.55016 0.35160 0.09400
C 	C 	0.66797 0.80782 0.40208 0.11200
C 	C 	0.59907 0.79456 0.31569 0.09800
C 	C 	0.86088 0.86422 0.33843 0.08500
N 	N 	0.42184 0.49798 0.34132 -0.09300
N 	N 	0.70851 0.86090 0.41238 -0.09300
N 	N 	0.91481 0.88469 0.34467 -0.10800
N 	N 	0.54686 0.78600 0.31222 -0.10600
H 	H 	0.70162 0.86365 0.28137 0.05000
H 	H 	0.75504 0.77366 0.36809 0.06500
H 	H 	0.58435 0.63574 0.33103 0.06200
H 	H 	0.54982 0.71798 0.42315 0.08100
C 	C 	0.17053 0.33978 0.36488 -0.03300
C 	C 	0.13213 0.34314 0.34297 0.02700
C 	C 	0.12729 0.40716 0.33912 -0.05100
C 	C 	0.16305 0.46905 0.35604 0.03000
C 	C 	0.20417 0.46696 0.37705 -0.06100
C 	C 	0.20602 0.40141 0.38184 0.01900
C 	C 	0.09956 0.28116 0.32310 0.02400
C 	C 	0.03958 0.21960 0.33038 -0.04800
C 	C 	0.01040 0.15789 0.31292 0.02600
C 	C 	0.04089 0.15824 0.28738 -0.05800
C 	C 	0.10076 0.22050 0.28007 0.01100
C 	C 	0.13024 0.28155 0.29780 -0.03200
C 	C 	0.95091 0.09342 0.32200 0.10500
C 	C 	0.19237 0.34421 0.29001 0.10200
C 	C 	0.17523 0.27393 0.36956 0.10800
C 	C 	0.15665 0.53404 0.35194 0.09100
N 	N 	0.90323 0.04191 0.32931 -0.08800
N 	N 	0.24214 0.39443 0.28380 -0.10100
N 	N 	0.15156 0.58612 0.34867 -0.09300
N 	N 	0.17895 0.22114 0.37329 -0.09500
H 	H 	0.23727 0.39943 0.39807 0.05500
H 	H 	0.09668 0.40922 0.32261 0.06300
H 	H 	0.01638 0.21906 0.35001 0.06800
H 	H 	0.12422 0.22171 0.26045 0.06100
C 	C 	0.05661 0.78971 0.34024 -0.02800
C 	C 	0.09846 0.84815 0.35777 0.01600
C 	C 	0.10167 0.91684 0.35507 -0.03500
C 	C 	0.07040 0.93051 0.33287 -0.02300
C 	C 	0.03574 0.87462 0.31294 -0.05000
C 	C 	0.02537 0.80306 0.31799 -0.00100
C 	C 	0.14973 0.84300 0.37390 0.02700
C 	C 	0.20951 0.86223 0.36085 -0.05200
C 	C 	0.25327 0.84290 0.37279 0.03600
C 	C 	0.23843 0.80633 0.39878 -0.04900
C 	C 	0.18153 0.79359 0.41313 0.01200
C 	C 	0.13676 0.81125 0.40071 -0.03000
C 	C 	0.31152 0.85711 0.35746 0.11600
C 	C 	0.07694 0.79470 0.41517 0.10800
C 	C 	0.04846 0.71677 0.34403 0.09900
C 	C 	0.07332 0.00132 0.33111 0.15400
N 	N 	0.35800 0.86862 0.34502 -0.09100
N 	N 	0.02896 0.78143 0.42675 -0.09700
N 	N 	0.07604 0.05827 0.32984 -0.10800
N 	N 	0.04199 0.65838 0.34707 -0.09600
H 	H 	0.99565 0.75852 0.30384 0.05500
H 	H 	0.13164 0.96098 0.36934 0.05200
H 	H 	0.22006 0.88830 0.34049 0.06100
H 	H 	0.17042 0.76641 0.43327 0.06200
C 	C 	0.58720 0.08165 0.49053 -0.14200
C 	C 	0.57838 0.10671 0.46460 0.03000
C 	C 	0.58643 0.17787 0.46223 0.28500
C 	C 	0.60453 0.22409 0.48542 -0.05500
C 	C 	0.61716 0.20083 0.51109 -0.14100
C 	C 	0.60670 0.12830 0.51365 0.37800
C 	C 	0.55612 0.05623 0.44051 -0.01600
F 	F 	0.57752 0.20263 0.43736 -0.41200
H 	H 	0.61059 0.27893 0.48321 0.10300
F 	F 	0.61590 0.10307 0.53836 -0.42700
H 	H 	0.57893 0.02588 0.49275 0.14100
C 	C 	0.59225 0.02240 0.43172 0.35400
C 	C 	0.56184 0.95806 0.41574 -0.11800
C 	C 	0.49501 0.92659 0.40914 -0.11000
C 	C 	0.46382 0.96897 0.41300 0.30700
C 	C 	0.49373 0.03273 0.42925 -0.07200
F 	F 	0.65486 0.04832 0.44052 -0.41000
H 	H 	0.58776 0.92799 0.41146 0.11600
F 	F 	0.40135 0.94336 0.40424 -0.43600
H 	H 	0.46645 0.06045 0.43483 0.12700
C 	C 	0.10283 0.54889 0.51613 -0.13500
C 	C 	0.12262 0.58773 0.54131 0.01000
C 	C 	0.18770 0.61661 0.55015 0.29400
C 	C 	0.23408 0.61431 0.53236 -0.05500
C 	C 	0.21592 0.58531 0.50541 -0.13700
C 	C 	0.14925 0.54685 0.49840 0.37000
C 	C 	0.07642 0.60321 0.55689 0.02200
F 	F 	0.20692 0.65130 0.57505 -0.42000
H 	H 	0.28530 0.64203 0.53835 0.09700
F 	F 	0.13048 0.51504 0.47298 -0.43700
H 	H 	0.05218 0.52441 0.50951 0.12400
C 	C 	0.05235 0.64635 0.54448 0.28600
C 	C 	0.98955 0.63371 0.55137 -0.05400
C 	C 	0.95077 0.57695 0.57005 -0.13500
C 	C 	0.98154 0.54855 0.58731 0.36500
C 	C 	0.04415 0.56056 0.58035 -0.14100
F 	F 	0.08620 0.69359 0.52346 -0.41800
H 	H 	0.96783 0.66026 0.53933 0.10600
F 	F 	0.94669 0.49938 0.60766 -0.45200
H 	H 	0.06417 0.53044 0.59123 0.12600
C 	C 	0.69626 0.66483 0.52788 -0.14300
C 	C 	0.64472 0.63818 0.50871 0.01300
C 	C 	0.63018 0.57514 0.49295 0.29700
C 	C 	0.66201 0.53459 0.49863 -0.05100
C 	C 	0.70833 0.55671 0.52007 -0.14300
C 	C 	0.72835 0.62453 0.53343 0.37200
C 	C 	0.60050 0.66976 0.50783 0.01200
F 	F 	0.58225 0.55061 0.47342 -0.41800
H 	H 	0.64705 0.48307 0.48786 0.09900
F 	F 	0.77515 0.64818 0.55344 -0.44800
H 	H 	0.70898 0.71449 0.53960 0.11700
C 	C 	0.53938 0.63337 0.52136 0.29700
C 	C 	0.49063 0.65114 0.51471 -0.05400
C 	C 	0.50244 0.70435 0.49423 -0.14600
C 	C 	0.56688 0.74916 0.48451 0.37000
C 	C 	0.61548 0.73074 0.49075 -0.14500
F 	F 	0.52561 0.57704 0.53927 -0.41700
H 	H 	0.44170 0.61820 0.52324 0.09500
F 	F 	0.58058 0.80569 0.46672 -0.44400
H 	H 	0.66343 0.76112 0.48110 0.11600
C 	C 	0.83310 0.13089 0.58762 -0.04500
C 	C 	0.89947 0.17381 0.59534 0.03300
C 	C 	0.93747 0.24366 0.58314 -0.04900
C 	C 	0.90687 0.27607 0.56805 0.02900
C 	C 	0.83813 0.23862 0.56551 -0.05900
C 	C 	0.80294 0.16330 0.57229 0.02400
C 	C 	0.92419 0.15438 0.62059 0.02000
C 	C 	0.94377 0.10063 0.61912 -0.04000
C 	C 	0.96264 0.07796 0.64328 0.01100
C 	C 	0.96349 0.11065 0.66909 -0.05700
C 	C 	0.94441 0.16478 0.67046 0.01100
C 	C 	0.92428 0.18630 0.64649 -0.03100
C 	C 	0.98074 0.02106 0.64141 0.13800
C 	C 	0.90242 0.24010 0.64871 0.10200
C 	C 	0.79455 0.05559 0.59714 0.15500
C 	C 	0.94573 0.34889 0.55640 0.09800
N 	N 	0.99512 0.97535 0.63991 -0.12800
N 	N 	0.88487 0.28315 0.65044 -0.10000
N 	N 	0.97679 0.40719 0.54693 -0.09700
N 	N 	0.76368 0.99525 0.60478 -0.13800
H 	H 	0.75052 0.13245 0.56850 0.07700
H 	H 	0.98962 0.27511 0.58742 0.06600
H 	H 	0.94318 0.07558 0.59928 0.06900
H 	H 	0.94442 0.18948 0.69032 0.05200
C 	C 	0.46331 0.33469 0.64494 -0.03500
C 	C 	0.43788 0.26210 0.65522 0.02900
C 	C 	0.47341 0.22485 0.65159 -0.05200
C 	C 	0.53299 0.25812 0.63718 0.04000
C 	C 	0.55704 0.32942 0.62554 -0.07500
C 	C 	0.52277 0.36798 0.63013 0.02300
C 	C 	0.37271 0.22311 0.66883 0.02600
C 	C 	0.31612 0.19138 0.65231 -0.05200
C 	C 	0.25437 0.14681 0.66436 0.03100
C 	C 	0.24896 0.13375 0.69331 -0.07100
C 	C 	0.30568 0.16494 0.70977 0.01500
C 	C 	0.36730 0.21004 0.69776 -0.03700
C 	C 	0.19709 0.11306 0.64678 0.09600
C 	C 	0.42471 0.24339 0.71530 0.09900
C 	C 	0.42868 0.37518 0.64946 0.10600
C 	C 	0.57002 0.21953 0.63516 0.07700
N 	N 	0.15127 0.08609 0.63265 -0.08600
N 	N 	0.47069 0.27008 0.72935 -0.10700
N 	N 	0.59946 0.18837 0.63358 -0.10900
N 	N 	0.40090 0.40759 0.65310 -0.10000
H 	H 	0.54155 0.42310 0.62165 0.05800
H 	H 	0.45436 0.16954 0.65994 0.06900
H 	H 	0.32038 0.20036 0.62999 0.06800
H 	H 	0.30160 0.15577 0.73207 0.04700
C 	C 	0.88888 0.51557 0.69198 -0.02900
C 	C 	0.85322 0.54917 0.70209 0.02300
C 	C 	0.78437 0.50927 0.70111 -0.04900
C 	C 	0.75287 0.44373 0.68578 0.02300
C 	C 	0.79047 0.42335 0.66887 -0.06200
C 	C 	0.85684 0.45158 0.67569 0.01700
C 	C 	0.88689 0.62982 0.70800 0.02700
C 	C 	0.92301 0.68013 0.68674 -0.05400
C 	C 	0.95073 0.75634 0.69096 0.02800
C 	C 	0.93953 0.78288 0.71622 -0.07400
C 	C 	0.90248 0.73252 0.73727 0.01400
C 	C 	0.87819 0.65664 0.73368 -0.04000
C 	C 	0.99042 0.80665 0.66925 0.09100
C 	C 	0.84624 0.60699 0.75672 0.09500
C 	C 	0.95834 0.54807 0.69718 0.11000
C 	C 	0.68224 0.40118 0.68572 0.09300
N 	N 	0.02240 0.84676 0.65183 -0.09400
N 	N 	0.82067 0.56721 0.77518 -0.10700
N 	N 	0.62555 0.36715 0.68595 -0.10000
N 	N 	0.01403 0.57417 0.70134 -0.10000
H 	H 	0.88531 0.43062 0.66514 0.07200
H 	H 	0.75578 0.53149 0.71066 0.06000
H 	H 	0.92924 0.65981 0.66683 0.07000
H 	H 	0.89373 0.75261 0.75669 0.04500
C 	C 	0.81205 0.44316 0.04180 -0.14400
C 	C 	0.87917 0.47046 0.03728 0.01600
C 	C 	0.89976 0.44253 0.01514 0.30100
C 	C 	0.85438 0.39698 0.99528 -0.05200
C 	C 	0.78861 0.37960 0.99743 -0.14100
C 	C 	0.76661 0.39638 0.02219 0.37400
C 	C 	0.92800 0.53320 0.05370 0.01000
F 	F 	0.96429 0.46381 0.01182 -0.41600
H 	H 	0.87150 0.38169 0.97682 0.09900
F 	F 	0.70206 0.37489 0.02555 -0.44100
H 	H 	0.79541 0.46156 0.05956 0.12000
C 	C 	0.96935 0.60062 0.04038 0.30600
C 	C 	0.03243 0.64615 0.05076 -0.05800
C 	C 	0.05418 0.62272 0.07377 -0.14300
C 	C 	0.00709 0.56693 0.09088 0.36900
C 	C 	0.94395 0.52104 0.08056 -0.13900
F 	F 	0.95148 0.61736 0.01574 -0.41600
H 	H 	0.06714 0.69316 0.03859 0.09700
F 	F 	0.02555 0.54941 0.11520 -0.44600
H 	H 	0.91019 0.47215 0.09211 0.11800
C 	C 	0.41438 0.07316 0.97406 -0.15000
C 	C 	0.42999 0.05129 0.99922 0.06900
C 	C 	0.48488 0.10227 0.01441 0.28300
C 	C 	0.52763 0.17146 0.00299 -0.04600
C 	C 	0.51562 0.19026 0.97645 -0.13400
C 	C 	0.45650 0.14295 0.96294 0.38200
C 	C 	0.39286 0.97346 0.00825 -0.03800
F 	F 	0.49842 0.08336 0.03959 -0.39700
H 	H 	0.57234 0.20837 0.01393 0.12200
F 	F 	0.44125 0.16348 0.93850 -0.43300
H 	H 	0.37103 0.03508 0.96260 0.14900
C 	C 	0.32605 0.94142 0.01516 0.30100
C 	C 	0.29217 0.86881 0.02504 -0.06200
C 	C 	0.32496 0.82817 0.02850 -0.13400
C 	C 	0.39101 0.85919 0.02059 0.36400
C 	C 	0.42463 0.93130 0.01024 -0.12000
F 	F 	0.29465 0.98142 0.01324 -0.43200
H 	H 	0.24121 0.84526 0.03123 0.09800
F 	F 	0.42309 0.82020 0.02371 -0.43200
H 	H 	0.47578 0.95506 0.00435 0.11400
C 	C 	0.41386 0.42156 0.93176 -0.13800
C 	C 	0.43506 0.49224 0.94258 0.02100
C 	C 	0.49541 0.55116 0.93372 0.28600
C 	C 	0.53880 0.53687 0.91842 -0.05500
C 	C 	0.52263 0.46370 0.91287 -0.14100
C 	C 	0.45725 0.40767 0.91631 0.37300
C 	C 	0.40051 0.50150 0.96657 0.01400
F 	F 	0.51431 0.62107 0.94206 -0.41400
H 	H 	0.58790 0.58143 0.91415 0.09200
F 	F 	0.43891 0.33755 0.90844 -0.42700
H 	H 	0.36597 0.37630 0.93728 0.13700
C 	C 	0.33676 0.49051 0.96357 0.29300
C 	C 	0.30438 0.49942 0.98640 -0.05300
C 	C 	0.33575 0.52043 0.01233 -0.13600
C 	C 	0.39838 0.52832 0.01564 0.37600
C 	C 	0.43057 0.51865 0.99284 -0.13300
F 	F 	0.30677 0.47282 0.93840 -0.41600
H 	H 	0.25569 0.49248 0.98376 0.09600
F 	F 	0.42911 0.54827 0.04062 -0.42900
H 	H 	0.47918 0.52535 0.99547 0.12800
C 	C 	0.90353 0.37040 0.82853 -0.03600
C 	C 	0.89499 0.29904 0.83265 0.02800
C 	C 	0.85059 0.25256 0.85282 -0.05400
C 	C 	0.81315 0.27540 0.86832 0.03600
C 	C 	0.82108 0.34671 0.86409 -0.07700
C 	C 	0.86645 0.39378 0.84419 0.02100
C 	C 	0.92836 0.26996 0.81452 0.02400
C 	C 	0.98360 0.26759 0.82447 -0.05000
C 	C 	0.00871 0.22827 0.81003 0.02800
C 	C 	0.97737 0.18961 0.78545 -0.07100
C 	C 	0.92507 0.19686 0.77454 0.01400
C 	C 	0.90032 0.23629 0.78898 -0.03500
C 	C 	0.06652 0.22841 0.82057 0.10300
C 	C 	0.84501 0.24051 0.77776 0.10200
C 	C 	0.94977 0.41963 0.80812 0.10300
C 	C 	0.76485 0.22408 0.88767 0.07500
N 	N 	0.11291 0.22873 0.82906 -0.08500
N 	N 	0.80072 0.24394 0.76880 -0.10000
N 	N 	0.72625 0.18289 0.90316 -0.11300
N 	N 	0.98680 0.45903 0.79175 -0.10400
H 	H 	0.87286 0.44855 0.84090 0.05300
H 	H 	0.84385 0.19756 0.85588 0.06800
H 	H 	0.00600 0.29480 0.84387 0.06600
H 	H 	0.90287 0.17069 0.75497 0.05400
C 	C 	0.31977 0.08548 0.79992 -0.05800
C 	C 	0.36349 0.15330 0.81233 0.03900
C 	C 	0.34852 0.21091 0.81253 -0.05900
C 	C 	0.28946 0.20064 0.80113 0.03900
C 	C 	0.24468 0.13185 0.78949 -0.08800
C 	C 	0.26073 0.07503 0.78864 0.03100
C 	C 	0.42463 0.16423 0.82571 0.02100
C 	C 	0.48321 0.19553 0.81038 -0.04700
C 	C 	0.54332 0.22036 0.82399 0.02900
C 	C 	0.54487 0.21614 0.85323 -0.05900
C 	C 	0.48598 0.17377 0.86773 0.01200
C 	C 	0.42571 0.14906 0.85426 -0.01700
C 	C 	0.60352 0.25401 0.80807 0.09400
C 	C 	0.36550 0.11102 0.87004 0.13300
C 	C 	0.33496 0.02612 0.79884 0.14900
C 	C 	0.27479 0.26040 0.80197 0.09400
N 	N 	0.65181 0.28099 0.79534 -0.09500
N 	N 	0.31723 0.08055 0.88268 -0.08000
N 	N 	0.26313 0.30837 0.80263 -0.09000
N 	N 	0.34717 0.97859 0.79799 -0.14400
H 	H 	0.22714 0.02261 0.77913 0.03100
H 	H 	0.38255 0.26342 0.82186 0.07500
H 	H 	0.48222 0.20343 0.78811 0.06500
H 	H 	0.48711 0.16626 0.88999 0.09000
C 	C 	0.90435 0.77114 0.84543 -0.03400
C 	C 	0.90230 0.80755 0.86982 0.01600
C 	C 	0.92724 0.88408 0.86944 -0.03800
C 	C 	0.95321 0.92441 0.84483 -0.02000
C 	C 	0.95497 0.88782 0.82036 -0.06800
C 	C 	0.93154 0.81150 0.82108 0.00700
C 	C 	0.87113 0.76485 0.89537 0.02700
C 	C 	0.90322 0.73387 0.91028 -0.05300
C 	C 	0.86638 0.66745 0.92476 0.03500
C 	C 	0.79738 0.63317 0.92469 -0.07500
C 	C 	0.76729 0.67312 0.91528 0.01700
C 	C 	0.80389 0.73876 0.90034 -0.03800
C 	C 	0.89921 0.63229 0.93804 0.10100
C 	C 	0.77124 0.77555 0.88821 0.10000
C 	C 	0.87748 0.69198 0.84513 0.09400
C 	C 	0.97895 0.00322 0.84509 0.14900
N 	N 	0.92542 0.60400 0.94868 -0.06800
N 	N 	0.74511 0.80505 0.87848 -0.10500
N 	N 	0.99942 0.06636 0.84540 -0.10100
N 	N 	0.85594 0.62862 0.84494 -0.11000
H 	H 	0.93399 0.78336 0.80256 0.04600
H 	H 	0.92574 0.91206 0.88822 0.05200
H 	H 	0.95585 0.75698 0.90809 0.06500
H 	H 	0.71447 0.64920 0.91692 0.05400
