data_crystal

_cell_length_a 21.79763
_cell_length_b 21.17849
_cell_length_c 49.40136
_cell_angle_alpha 89.86202
_cell_angle_beta  89.86451
_cell_angle_gamma 119.77425

_symmetry_space_group_name_	'P 1'
_symmetry_space_group_name_H-M	'P 1'

loop_
_symmetry_equiv_pos_as_xyz
  x,y,z

loop_
_atom_site_label
_atom_site_type_symbol
_atom_site_fract_x
_atom_site_fract_y
_atom_site_fract_z
_atom_site_charge
C 	C 	0.81930 0.40236 0.93840 0.26600
C 	C 	0.58667 0.34804 0.86072 0.30800
C 	C 	0.74176 0.51719 0.91837 0.30700
C 	C 	0.66207 0.22698 0.87812 0.28500
C 	C 	0.53509 0.35816 0.94570 0.28200
C 	C 	0.59923 0.22142 0.96293 0.25900
Ni	Ni	0.72384 0.38672 0.88901 1.11300
Ni	Ni	0.56790 0.26571 0.91064 1.12000
Ni	Ni	0.67834 0.38225 0.95171 1.12100
O 	O 	0.81455 0.42562 0.91369 -0.36300
O 	O 	0.76401 0.36991 0.95497 -0.37700
O 	O 	0.51531 0.29096 0.93848 -0.37600
O 	O 	0.65133 0.35970 0.85743 -0.36600
O 	O 	0.55780 0.33422 0.88483 -0.38500
O 	O 	0.61488 0.28718 0.97174 -0.37400
O 	O 	0.71648 0.47908 0.89624 -0.37700
O 	O 	0.74844 0.48642 0.94042 -0.37900
O 	O 	0.57342 0.19901 0.93827 -0.37600
O 	O 	0.72174 0.29063 0.87891 -0.36900
O 	O 	0.59920 0.22300 0.87980 -0.37300
O 	O 	0.60215 0.40764 0.94671 -0.38500
O 	O 	0.66385 0.33478 0.91794 -0.71700
H 	H 	0.68180 0.30149 0.92225 0.15800
C 	C 	0.82051 0.45228 0.54412 0.26000
C 	C 	0.57100 0.17418 0.56801 0.28000
C 	C 	0.62510 0.40104 0.54160 0.28000
C 	C 	0.76234 0.23159 0.57515 0.28200
C 	C 	0.59639 0.34471 0.62463 0.30900
C 	C 	0.79418 0.40985 0.63383 0.29000
Ni	Ni	0.69091 0.30515 0.54508 1.11200
Ni	Ni	0.67465 0.27061 0.60980 1.12200
Ni	Ni	0.71737 0.42991 0.58877 1.12000
O 	O 	0.79265 0.38468 0.53514 -0.36600
O 	O 	0.78048 0.47630 0.55542 -0.37000
O 	O 	0.59033 0.28167 0.61823 -0.38300
O 	O 	0.58679 0.23361 0.55468 -0.37700
O 	O 	0.60826 0.17722 0.58941 -0.36400
O 	O 	0.79960 0.45099 0.61259 -0.38800
O 	O 	0.66063 0.37609 0.52814 -0.36400
O 	O 	0.62856 0.40566 0.56801 -0.38200
O 	O 	0.73650 0.34520 0.63825 -0.37300
O 	O 	0.72063 0.22691 0.55462 -0.36900
O 	O 	0.75058 0.24585 0.60027 -0.37400
O 	O 	0.65739 0.40502 0.62243 -0.38600
O 	O 	0.71059 0.33923 0.58076 -0.71600
H 	H 	0.76094 0.35354 0.58176 0.15600
C 	C 	0.93798 0.03560 0.68815 0.29200
C 	C 	0.93524 0.90138 0.79170 0.30800
C 	C 	0.91487 0.08003 0.76258 0.30800
C 	C 	0.95865 0.84267 0.72065 0.28100
C 	C 	0.12706 0.10826 0.78156 0.31000
C 	C 	0.15325 0.07723 0.71074 0.29400
Ni	Ni	0.90247 0.94478 0.73844 1.10800
Ni	Ni	0.05753 0.96962 0.75387 1.11600
Ni	Ni	0.04317 0.10423 0.73335 1.12400
O 	O 	0.89957 0.96833 0.69774 -0.37700
O 	O 	0.96982 0.09212 0.70483 -0.37700
O 	O 	0.08231 0.03880 0.78473 -0.38600
O 	O 	0.90151 0.93075 0.78000 -0.38000
O 	O 	0.98182 0.89176 0.77805 -0.38600
O 	O 	0.10836 0.10094 0.70545 -0.38300
O 	O 	0.87797 0.02663 0.74573 -0.36700
O 	O 	0.98378 0.10930 0.76395 -0.38300
O 	O 	0.14760 0.03817 0.73290 -0.37700
O 	O 	0.90567 0.84824 0.73178 -0.36800
O 	O 	0.02604 0.89091 0.72547 -0.37200
O 	O 	0.12518 0.14294 0.75967 -0.38000
O 	O 	0.00129 0.00141 0.73593 -0.69900
H 	H 	0.00802 0.98996 0.71723 0.14800
C 	C 	0.27302 0.79503 0.41664 0.28300
C 	C 	0.40381 0.63520 0.46713 0.28100
C 	C 	0.46177 0.85600 0.43471 0.28000
C 	C 	0.20940 0.57509 0.45340 0.25800
C 	C 	0.46040 0.68778 0.38575 0.30900
C 	C 	0.26617 0.61329 0.36420 0.28900
Ni	Ni	0.33521 0.72521 0.45469 1.11200
Ni	Ni	0.32792 0.59987 0.41530 1.12100
Ni	Ni	0.37276 0.75629 0.39062 1.12100
O 	O 	0.30678 0.80080 0.43985 -0.36800
O 	O 	0.29201 0.77712 0.39354 -0.37500
O 	O 	0.40023 0.62609 0.38564 -0.38700
O 	O 	0.36217 0.65814 0.47684 -0.36400
O 	O 	0.40932 0.62907 0.44104 -0.38300
O 	O 	0.32332 0.67921 0.36124 -0.37400
O 	O 	0.44147 0.79835 0.44981 -0.37700
O 	O 	0.42899 0.85101 0.41180 -0.36700
O 	O 	0.25442 0.57415 0.38666 -0.38700
O 	O 	0.23186 0.64348 0.46047 -0.36600
O 	O 	0.25448 0.55315 0.44579 -0.36800
O 	O 	0.46146 0.74983 0.38904 -0.38400
O 	O 	0.32852 0.68897 0.41961 -0.71700
H 	H 	0.27860 0.67261 0.41563 0.15800
C 	C 	0.42089 0.59897 0.06230 0.26600
C 	C 	0.21471 0.61267 0.13953 0.30800
C 	C 	0.22941 0.47431 0.07511 0.30700
C 	C 	0.40825 0.74868 0.13077 0.28500
C 	C 	0.17152 0.62923 0.05449 0.28300
C 	C 	0.35859 0.78371 0.04421 0.26600
Ni	Ni	0.32794 0.59429 0.11136 1.11400
Ni	Ni	0.28277 0.71383 0.09463 1.12000
Ni	Ni	0.30029 0.61943 0.04871 1.12100
O 	O 	0.39163 0.56947 0.08623 -0.35900
O 	O 	0.40054 0.63841 0.04795 -0.37800
O 	O 	0.21157 0.69408 0.06498 -0.38000
O 	O 	0.27057 0.60541 0.14320 -0.36900
O 	O 	0.20335 0.63309 0.11598 -0.38800
O 	O 	0.32700 0.71863 0.03212 -0.37200
O 	O 	0.23697 0.50085 0.09959 -0.37500
O 	O 	0.27266 0.51366 0.05561 -0.38000
O 	O 	0.35623 0.79113 0.07082 -0.38400
O 	O 	0.41200 0.68873 0.12658 -0.36800
O 	O 	0.34743 0.74896 0.12805 -0.37400
O 	O 	0.19675 0.58556 0.04980 -0.38500
O 	O 	0.32021 0.65352 0.08474 -0.72000
H 	H 	0.37033 0.69076 0.08262 0.16300
C 	C 	0.06509 0.17054 0.26518 0.29900
C 	C 	0.07592 0.92162 0.21403 0.30700
C 	C 	0.04541 0.10592 0.18948 0.30300
C 	C 	0.08563 0.97569 0.28668 0.27900
C 	C 	0.85760 0.91170 0.20897 0.30800
C 	C 	0.86235 0.93746 0.27974 0.29300
Ni	Ni	0.10330 0.06570 0.23709 1.11500
Ni	Ni	0.96134 0.90999 0.24839 1.11300
Ni	Ni	0.94643 0.04957 0.23555 1.12000
O 	O 	0.10798 0.16404 0.24762 -0.36900
O 	O 	0.99517 0.12944 0.26342 -0.38400
O 	O 	0.86995 0.87384 0.22727 -0.38600
O 	O 	0.12288 0.98256 0.22551 -0.37100
O 	O 	0.00875 0.90264 0.21423 -0.38100
O 	O 	0.86547 0.98603 0.26157 -0.38400
O 	O 	0.08690 0.08037 0.19667 -0.36700
O 	O 	0.01283 0.12306 0.20795 -0.36900
O 	O 	0.91066 0.91693 0.28111 -0.39600
O 	O 	0.12218 0.04217 0.27611 -0.36000
O 	O 	0.04361 0.91880 0.27134 -0.37200
O 	O 	0.90315 0.98047 0.20475 -0.40300
O 	O 	0.00626 0.01290 0.24608 -0.70600
H 	H 	0.00889 0.02472 0.26545 0.15900
C 	C 	0.14222 0.26602 0.08449 0.00300
C 	C 	0.14375 0.21250 0.10072 -0.05400
C 	C 	0.08684 0.17240 0.11838 0.01800
C 	C 	0.03108 0.18770 0.12015 0.00900
C 	C 	0.03469 0.24771 0.10674 -0.04200
C 	C 	0.09049 0.28642 0.08847 0.01400
S 	S 	0.21431 0.33841 0.07272 0.02400
C 	C 	0.18325 0.39628 0.07108 -0.07400
C 	C 	0.11357 0.35956 0.08087 -0.01500
S 	S 	0.99131 0.15691 0.14988 0.00600
C 	C 	0.03942 0.12044 0.16079 -0.05800
C 	C 	0.09157 0.13448 0.14131 -0.01900
H 	H 	0.19015 0.20622 0.10113 0.04700
H 	H 	0.99861 0.26713 0.11194 0.03800
H 	H 	0.08544 0.38766 0.08667 0.04500
H 	H 	0.13691 0.12779 0.14522 0.04900
C 	C 	0.59480 0.88791 0.15687 0.00200
C 	C 	0.66786 0.91484 0.15458 -0.05500
C 	C 	0.70225 0.90356 0.17647 0.01500
C 	C 	0.66342 0.86180 0.19871 -0.00200
C 	C 	0.58956 0.82575 0.19910 -0.05300
C 	C 	0.55540 0.84182 0.17839 0.01600
S 	S 	0.54049 0.86946 0.13082 0.01700
C 	C 	0.46551 0.80767 0.14590 -0.06700
C 	C 	0.48271 0.79704 0.17227 -0.01900
S 	S 	0.71334 0.83652 0.21559 0.02700
C 	C 	0.78699 0.88024 0.19675 -0.07800
C 	C 	0.77207 0.91483 0.17542 -0.02100
H 	H 	0.69608 0.94047 0.13606 0.04600
H 	H 	0.55970 0.78465 0.21426 0.04600
H 	H 	0.44728 0.75085 0.18469 0.04300
H 	H 	0.81091 0.94933 0.16050 0.04400
C 	C 	0.14009 0.77969 0.21327 -0.00000
C 	C 	0.18544 0.75126 0.21002 -0.05400
C 	C 	0.16007 0.68520 0.19618 0.01700
C 	C 	0.09187 0.65094 0.18489 -0.00200
C 	C 	0.05051 0.68473 0.18510 -0.05100
C 	C 	0.07466 0.74896 0.20002 0.01200
S 	S 	0.16698 0.86701 0.21852 0.03200
C 	C 	0.09746 0.86918 0.20524 -0.08100
C 	C 	0.04987 0.79891 0.19600 -0.00700
S 	S 	0.09120 0.59833 0.15992 0.03100
C 	C 	0.17379 0.61321 0.16302 -0.07700
C 	C 	0.20570 0.66327 0.18411 -0.01900
H 	H 	0.24015 0.78201 0.21631 0.04700
H 	H 	0.00398 0.66475 0.17248 0.04900
H 	H 	1.00000 0.78458 0.18642 0.03400
H 	H 	0.26242 0.69274 0.18712 0.04700
C 	C 	0.65560 0.75275 0.36708 -0.00200
C 	C 	0.72096 0.81420 0.36115 -0.05400
C 	C 	0.74582 0.82416 0.33443 0.01600
C 	C 	0.70457 0.77523 0.31420 0.00000
C 	C 	0.63566 0.71956 0.31943 -0.05500
C 	C 	0.61180 0.70734 0.34632 0.01600
S 	S 	0.60359 0.74887 0.39236 0.02900
C 	C 	0.52590 0.68817 0.37912 -0.07600
C 	C 	0.53897 0.67060 0.35324 -0.01800
S 	S 	0.73206 0.81728 0.28469 0.02100
C 	C 	0.79782 0.89674 0.29568 -0.07200
C 	C 	0.79918 0.89196 0.32401 -0.02000
H 	H 	0.74876 0.85558 0.37632 0.04600
H 	H 	0.60013 0.69025 0.30297 0.04600
H 	H 	0.49758 0.64342 0.33836 0.04400
H 	H 	0.83811 0.93501 0.33657 0.03900
C 	C 	0.10764 0.33542 0.31274 -0.00200
C 	C 	0.09464 0.38721 0.32484 -0.05200
C 	C 	0.14564 0.46093 0.32151 0.01800
C 	C 	0.20314 0.48133 0.30371 -0.00100
C 	C 	0.21481 0.42888 0.29110 -0.05300
C 	C 	0.16565 0.35539 0.29563 0.01700
S 	S 	0.04767 0.24923 0.30664 0.03800
C 	C 	0.09495 0.23295 0.28369 -0.07300
C 	C 	0.15890 0.29767 0.27913 -0.01900
S 	S 	0.26774 0.56169 0.31372 0.02800
C 	C 	0.22681 0.57530 0.33987 -0.06800
C 	C 	0.15867 0.51411 0.34155 -0.02100
H 	H 	0.04925 0.37081 0.33795 0.04900
H 	H 	0.26097 0.44483 0.27848 0.04700
H 	H 	0.19443 0.30518 0.26251 0.04700
H 	H 	0.12531 0.50240 0.35929 0.04600
C 	C 	0.13676 0.84235 0.38782 0.00200
C 	C 	0.09391 0.83133 0.36514 -0.05500
C 	C 	0.11583 0.88836 0.34646 0.02000
C 	C 	0.17988 0.95250 0.34973 -0.00700
C 	C 	0.22229 0.96488 0.37246 -0.06100
C 	C 	0.20181 0.90725 0.39100 0.01800
S 	S 	0.14382 0.77640 0.40305 0.01900
C 	C 	0.22592 0.82558 0.41508 -0.06800
C 	C 	0.25135 0.89783 0.40663 -0.02100
S 	S 	0.18258 0.01491 0.32854 0.04400
C 	C 	0.10347 0.96240 0.31403 -0.07500
C 	C 	0.07268 0.89298 0.32608 -0.01900
H 	H 	0.04584 0.77998 0.36205 0.04900
H 	H 	0.27192 0.01519 0.37465 0.05400
H 	H 	0.30701 0.93832 0.40716 0.04100
H 	H 	0.02229 0.84763 0.32004 0.04600
C 	C 	0.50852 0.01283 0.47244 0.09300
C 	C 	0.47348 0.04000 0.48842 -0.08800
C 	C 	0.48253 0.04218 0.51657 0.01300
C 	C 	0.52682 0.02041 0.52839 0.08500
C 	C 	0.56261 0.99421 0.51240 -0.09200
C 	C 	0.55351 0.99183 0.48423 0.00000
N 	N 	0.48020 0.97461 0.44967 -0.15700
C 	C 	0.50520 0.92782 0.44704 -0.00200
C 	C 	0.55198 0.93813 0.46796 -0.04300
N 	N 	0.55395 0.05717 0.55151 -0.15100
C 	C 	0.52898 0.10394 0.55432 0.00100
C 	C 	0.48356 0.09532 0.53307 -0.04500
H 	H 	0.43902 0.05719 0.47927 0.05800
H 	H 	0.59715 0.97713 0.52155 0.05300
H 	H 	0.56294 0.89639 0.47521 0.05100
H 	H 	0.47327 0.13764 0.52597 0.05300
H 	H 	0.43200 0.96514 0.44164 0.09200
H 	H 	0.60153 0.06579 0.55989 0.09700
C 	C 	0.96890 0.53865 0.50289 0.08600
C 	C 	0.98577 0.53039 0.47619 -0.10000
C 	C 	0.03102 0.50200 0.47198 0.03300
C 	C 	0.05995 0.48401 0.49367 0.07100
C 	C 	0.04254 0.49168 0.52037 -0.06500
C 	C 	0.99789 0.52079 0.52458 -0.00200
N 	N 	0.90545 0.52997 0.50982 -0.15300
C 	C 	0.89234 0.50466 0.53556 0.00500
C 	C 	0.94945 0.49968 0.54550 -0.04300
N 	N 	0.12398 0.49401 0.48688 -0.15000
C 	C 	0.13765 0.52061 0.46131 0.01200
C 	C 	0.08007 0.52452 0.45124 -0.05400
H 	H 	0.96368 0.54481 0.45923 0.05600
H 	H 	0.06448 0.47711 0.53734 0.05300
H 	H 	0.94499 0.46221 0.56141 0.04300
H 	H 	0.08426 0.56222 0.43548 0.05100
H 	H 	0.86573 0.51995 0.49581 0.08900
H 	H 	0.16346 0.50409 0.50102 0.09100
C 	C 	0.45628 0.52749 0.50210 0.07700
C 	C 	0.45427 0.48019 0.52243 -0.08100
C 	C 	0.51720 0.47962 0.52791 0.01200
C 	C 	0.57894 0.52363 0.51350 0.07700
C 	C 	0.58103 0.57220 0.49368 -0.08100
C 	C 	0.51790 0.57174 0.48804 0.01300
N 	N 	0.41230 0.55486 0.50105 -0.15200
C 	C 	0.44467 0.61566 0.48545 0.00000
C 	C 	0.51229 0.62954 0.47824 -0.04300
N 	N 	0.61991 0.49273 0.51260 -0.15100
C 	C 	0.58601 0.43002 0.52694 0.00000
C 	C 	0.52086 0.41916 0.53601 -0.04200
H 	H 	0.40589 0.44506 0.53336 0.05500
H 	H 	0.62908 0.60687 0.48249 0.05500
H 	H 	0.54389 0.66478 0.46181 0.05300
H 	H 	0.48902 0.38181 0.55191 0.05000
H 	H 	0.35783 0.52445 0.50450 0.08900
H 	H 	0.67386 0.52034 0.50795 0.08900
C 	C 	0.88239 0.05485 0.61445 0.01000
C 	C 	0.83057 0.05378 0.59745 -0.05600
C 	C 	0.84486 0.11874 0.58446 0.01800
C 	C 	0.90851 0.18339 0.58951 0.00200
C 	C 	0.95535 0.18623 0.60947 -0.05600
C 	C 	0.94257 0.12079 0.62154 0.01900
S 	S 	0.86567 0.99578 0.63951 0.00600
C 	C 	0.93469 0.04884 0.65910 -0.05700
C 	C 	0.97199 0.11750 0.64676 -0.03300
S 	S 	0.89545 0.25233 0.58220 0.01600
C 	C 	0.81209 0.20498 0.57130 -0.06800
C 	C 	0.79086 0.13092 0.57407 -0.01900
H 	H 	0.77902 0.00546 0.59591 0.05000
H 	H 	0.99731 0.23801 0.61671 0.04600
H 	H 	0.01228 0.16522 0.65704 0.05400
H 	H 	0.73588 0.08855 0.57336 0.04200
C 	C 	0.30008 0.20851 0.66294 -0.00000
C 	C 	0.34435 0.23934 0.64050 -0.05200
C 	C 	0.41491 0.29218 0.64530 0.01700
C 	C 	0.44033 0.30953 0.67199 0.00000
C 	C 	0.39849 0.26952 0.69405 -0.05400
C 	C 	0.32714 0.21978 0.68922 0.01800
S 	S 	0.22361 0.13129 0.66281 0.03100
C 	C 	0.21998 0.11052 0.69580 -0.06900
C 	C 	0.28241 0.16488 0.70773 -0.02000
S 	S 	0.52764 0.34701 0.67080 0.02800
C 	C 	0.53692 0.34681 0.63723 -0.07600
C 	C 	0.46932 0.31297 0.62576 -0.01600
H 	H 	0.32563 0.22058 0.62019 0.04800
H 	H 	0.42145 0.27399 0.71388 0.04800
H 	H 	0.29246 0.16776 0.72929 0.04700
H 	H 	0.45931 0.29401 0.60502 0.04500
C 	C 	0.97128 0.67847 0.69184 0.00400
C 	C 	0.97446 0.63213 0.67246 -0.06700
C 	C 	0.92783 0.55705 0.67511 0.02100
C 	C 	0.87860 0.53007 0.69656 -0.00400
C 	C 	0.86940 0.57748 0.71363 -0.05100
C 	C 	0.91665 0.65227 0.71115 0.01400
S 	S 	0.99758 0.76578 0.68631 0.01800
C 	C 	0.94239 0.77382 0.70778 -0.06700
C 	C 	0.90107 0.70615 0.72039 -0.02000
S 	S 	0.81259 0.45003 0.68699 0.03200
C 	C 	0.84286 0.44482 0.65645 -0.06900
C 	C 	0.90815 0.50877 0.65279 -0.02400
H 	H 	0.00789 0.65408 0.65471 0.05600
H 	H 	0.82339 0.55736 0.72669 0.04700
H 	H 	0.86165 0.69616 0.73574 0.04700
H 	H 	0.93372 0.52560 0.63317 0.04400
C 	C 	0.95633 0.45069 0.98511 0.08700
C 	C 	0.96423 0.45559 0.01333 -0.10100
C 	C 	0.00277 0.52480 0.02494 0.03100
C 	C 	0.03460 0.58704 0.00889 0.07000
C 	C 	0.02581 0.58226 0.98067 -0.06500
C 	C 	0.98711 0.51297 0.96908 -0.00500
N 	N 	0.89808 0.39816 0.97307 -0.15400
C 	C 	0.88983 0.42668 0.94973 0.00400
C 	C 	0.94484 0.49790 0.94646 -0.03900
N 	N 	0.09400 0.63848 0.02078 -0.14900
C 	C 	0.10133 0.60933 0.04412 0.00500
C 	C 	0.04477 0.53912 0.04752 -0.04800
H 	H 	0.94037 0.40710 0.02587 0.05700
H 	H 	0.04964 0.63072 0.96813 0.05300
H 	H 	0.94050 0.53905 0.93487 0.05100
H 	H 	0.04755 0.49733 0.05930 0.05600
H 	H 	0.85675 0.35481 0.98350 0.09200
H 	H 	0.13645 0.67996 0.01011 0.09000
C 	C 	0.53078 0.08300 0.01213 0.06800
C 	C 	0.46568 0.03927 0.02510 -0.06400
C 	C 	0.42722 0.96560 0.01815 -0.00400
C 	C 	0.45467 0.93501 0.00044 0.08600
C 	C 	0.52076 0.97795 0.98811 -0.10200
C 	C 	0.55810 0.05256 0.99412 0.03200
N 	N 	0.55327 0.15274 0.00536 -0.15000
C 	C 	0.59318 0.16690 0.98277 0.01000
C 	C 	0.59789 0.10608 0.97536 -0.05400
N 	N 	0.42777 0.86374 0.00601 -0.15400
C 	C 	0.38337 0.84894 0.02724 0.00600
C 	C 	0.38183 0.91090 0.03541 -0.03900
H 	H 	0.44432 0.06258 0.03920 0.05200
H 	H 	0.54197 0.95440 0.97406 0.05600
H 	H 	0.60774 0.09511 0.95486 0.05600
H 	H 	0.36825 0.91964 0.05564 0.04700
H 	H 	0.52629 0.18037 0.01050 0.09200
H 	H 	0.45272 0.83388 0.00123 0.08700
C 	C 	0.47763 0.48888 0.03045 0.07700
C 	C 	0.44827 0.41651 0.02185 -0.08200
C 	C 	0.44314 0.40274 0.99394 0.01200
C 	C 	0.46707 0.45930 0.97522 0.07900
C 	C 	0.49588 0.53155 0.98389 -0.08300
C 	C 	0.50265 0.54545 0.01175 0.01300
N 	N 	0.45650 0.50744 0.05321 -0.15100
C 	C 	0.46649 0.57514 0.04910 0.00700
C 	C 	0.49627 0.60081 0.02366 -0.04700
N 	N 	0.48978 0.44174 0.95267 -0.15100
C 	C 	0.48319 0.37557 0.95701 0.00200
C 	C 	0.45287 0.34903 0.98229 -0.04200
H 	H 	0.42949 0.37236 0.03639 0.05500
H 	H 	0.51445 0.57573 0.96936 0.05400
H 	H 	0.49104 0.64179 0.01234 0.05200
H 	H 	0.46109 0.31033 0.99388 0.05000
H 	H 	0.41891 0.46958 0.06660 0.09400
H 	H 	0.52644 0.48027 0.93919 0.09200
C 	C 	0.83219 0.13452 0.82221 -0.00200
C 	C 	0.81064 0.13504 0.84875 -0.05200
C 	C 	0.74156 0.12202 0.85290 0.01800
C 	C 	0.69377 0.10086 0.83104 -0.00100
C 	C 	0.71508 0.09636 0.80460 -0.05300
C 	C 	0.78490 0.11224 0.80062 0.01800
S 	S 	0.90383 0.13157 0.81279 0.03600
C 	C 	0.87909 0.10599 0.78076 -0.07600
C 	C 	0.81075 0.09523 0.77702 -0.01700
S 	S 	0.63578 0.12773 0.83811 0.03100
C 	C 	0.66558 0.16340 0.86868 -0.07000
C 	C 	0.72453 0.15546 0.87420 -0.02100
H 	H 	0.84789 0.15128 0.86531 0.04800
H 	H 	0.67910 0.08288 0.78772 0.04800
H 	H 	0.77917 0.07060 0.75916 0.04800
H 	H 	0.76131 0.18502 0.89031 0.04400
C 	C 	0.43308 0.24693 0.81034 -0.00200
C 	C 	0.37121 0.18034 0.80609 -0.05500
C 	C 	0.30615 0.17733 0.81004 0.01700
C 	C 	0.30361 0.23905 0.81841 -0.00000
C 	C 	0.36506 0.30563 0.82272 -0.05300
C 	C 	0.43027 0.30774 0.82024 0.01600
S 	S 	0.50858 0.25398 0.82063 0.02800
C 	C 	0.54148 0.33316 0.83699 -0.07700
C 	C 	0.49114 0.35610 0.83528 -0.01800
S 	S 	0.22439 0.22773 0.81088 0.03200
C 	C 	0.18900 0.14249 0.79916 -0.07600
C 	C 	0.24144 0.12247 0.79925 -0.01700
H 	H 	0.37370 0.13260 0.79994 0.04800
H 	H 	0.36224 0.35284 0.82936 0.04800
H 	H 	0.49267 0.39826 0.84813 0.04400
H 	H 	0.23635 0.07562 0.78846 0.03700
C 	C 	0.86717 0.71175 0.89248 -0.00000
C 	C 	0.91694 0.75043 0.87210 -0.05500
C 	C 	0.89612 0.77899 0.85072 0.01500
C 	C 	0.82711 0.76672 0.84939 0.00000
C 	C 	0.77755 0.72943 0.86975 -0.05400
C 	C 	0.79702 0.69806 0.89068 0.01600
S 	S 	0.86535 0.64377 0.90986 0.01800
C 	C 	0.77871 0.59646 0.91650 -0.07500
C 	C 	0.74755 0.63350 0.90430 -0.01800
S 	S 	0.82495 0.82493 0.82746 0.02300
C 	C 	0.91034 0.86606 0.81815 -0.07600
C 	C 	0.94321 0.83404 0.83274 -0.01700
H 	H 	0.96969 0.75758 0.87283 0.04400
H 	H 	0.72425 0.72059 0.86838 0.04600
H 	H 	0.69105 0.60836 0.90112 0.04300
H 	H 	0.99828 0.84930 0.83031 0.04000
