data_crystal

_cell_length_a 20.11161
_cell_length_b 18.40941
_cell_length_c 38.10695
_cell_angle_alpha 90.77272
_cell_angle_beta  90.88115
_cell_angle_gamma 113.65923

_symmetry_space_group_name_	'P 1'
_symmetry_space_group_name_H-M	'P 1'

loop_
_symmetry_equiv_pos_as_xyz
  x,y,z

loop_
_atom_site_label
_atom_site_type_symbol
_atom_site_fract_x
_atom_site_fract_y
_atom_site_fract_z
_atom_site_charge
C 	C 	0.04143 0.02057 0.69235 -0.03900
H 	H 	0.03847 0.03391 0.66413 0.05200
C 	C 	0.04853 0.98895 0.75995 -0.02200
H 	H 	0.05164 0.97591 0.78819 0.04900
C 	C 	0.11651 0.02811 0.70545 0.00700
C 	C 	0.11983 0.01090 0.74012 -0.01000
O 	O 	0.17136 0.76741 0.39209 -0.34600
O 	O 	0.18195 0.61980 0.38049 -0.38100
O 	O 	0.16978 0.58007 0.48335 -0.40100
O 	O 	0.12962 0.65427 0.44714 -0.32700
C 	C 	0.20551 0.84271 0.38455 0.29800
C 	C 	0.17671 0.54696 0.38399 0.31000
C 	C 	0.11609 0.59411 0.46865 0.32800
O 	O 	0.13475 0.64049 0.05172 -0.34900
O 	O 	0.20568 0.74770 0.11032 -0.35700
C 	C 	0.20918 0.53895 0.08329 0.32400
C 	C 	0.11301 0.60570 0.02049 0.33800
C 	C 	0.22709 0.82440 0.11669 0.29200
O 	O 	0.15921 0.60433 0.99642 -0.40200
C 	C 	0.10309 0.35946 0.15091 -0.01700
C 	C 	0.03579 0.35193 0.16394 0.00300
C 	C 	0.17505 0.47849 0.10879 -0.09700
C 	C 	0.08697 0.23374 0.17705 -0.05800
C 	C 	0.12846 0.30003 0.15746 -0.01400
C 	C 	0.14340 0.42512 0.12855 0.05900
C 	C 	0.01978 0.22640 0.19025 0.05400
H 	H 	0.01538 0.39708 0.15876 0.04400
H 	H 	0.10757 0.18885 0.18241 0.05000
H 	H 	0.18006 0.30491 0.14728 0.04200
C 	C 	0.11291 0.91310 0.17889 -0.01800
C 	C 	0.15113 0.98379 0.19795 -0.01400
C 	C 	0.11373 0.02491 0.21366 -0.06200
C 	C 	0.18563 0.85136 0.13982 -0.09300
C 	C 	0.03689 0.88228 0.17667 0.00600
C 	C 	0.15197 0.87785 0.15816 0.05600
C 	C 	0.03780 0.99523 0.21061 0.05800
H 	H 	0.20992 0.00815 0.19970 0.03400
H 	H 	0.14379 0.08060 0.22752 0.04700
C 	C 	0.08863 0.38681 0.30485 -0.03100
C 	C 	0.12614 0.34398 0.29074 -0.00800
C 	C 	0.08843 0.27401 0.27159 -0.06400
C 	C 	0.14932 0.49385 0.35475 -0.10800
C 	C 	0.01404 0.36200 0.29794 0.02700
C 	C 	0.12307 0.44654 0.33124 0.06700
C 	C 	0.01310 0.24683 0.26642 0.06200
H 	H 	0.18388 0.36305 0.29591 0.03600
H 	H 	0.11736 0.24004 0.26135 0.04900
C 	C 	0.09324 0.94850 0.33127 -0.01800
C 	C 	0.12191 0.03097 0.32767 -0.01300
C 	C 	0.08703 0.06532 0.30564 -0.06000
C 	C 	0.16644 0.88119 0.36641 -0.09900
C 	C 	0.02812 0.90077 0.31385 0.00600
C 	C 	0.13312 0.91242 0.35070 0.05900
C 	C 	0.02376 0.01723 0.28693 0.05700
H 	H 	0.17206 0.06822 0.34124 0.04200
H 	H 	0.11041 0.12891 0.30222 0.05000
C 	C 	0.01449 0.46833 0.48676 -0.07900
C 	C 	0.04044 0.55018 0.48081 -0.10300
H 	H 	0.04982 0.43739 0.48315 0.08800
F 	F 	0.01699 0.66816 0.47988 -0.41600
C 	C 	0.18139 0.06538 0.68458 -0.00100
H 	H 	0.03412 0.88928 0.64399 0.06400
C 	C 	0.00474 0.49329 0.99757 -0.07100
C 	C 	0.03587 0.57042 0.01184 -0.11800
H 	H 	0.03557 0.45667 0.99693 0.09000
F 	F 	0.02371 0.69013 0.02891 -0.42600
C 	C 	0.20730 0.09065 0.78627 -0.04200
C 	C 	0.18896 0.03307 0.75938 0.02400
H 	H 	0.22123 0.95017 0.73111 0.04900
H 	H 	0.17156 0.11996 0.79232 0.05300
O 	O 	0.17055 0.51602 0.41510 -0.39600
O 	O 	0.19673 0.51934 0.04977 -0.39000
C 	C 	0.23565 0.99552 0.75163 -0.04300
O 	O 	0.24396 0.61330 0.09380 -0.39300
Ni	Ni	0.22252 0.70724 0.41826 1.10500
O 	O 	0.26844 0.88623 0.39979 -0.39400
Ni	Ni	0.24579 0.56068 0.45463 1.07600
Ni	Ni	0.24058 0.70762 0.06668 1.10500
Ni	Ni	0.24977 0.58667 0.00793 1.07600
O 	O 	0.27288 0.87615 0.09565 -0.39500
C 	C 	0.23593 0.09597 0.66761 -0.02100
H 	H 	0.24419 0.14095 0.60021 0.06000
C 	C 	0.30146 0.01743 0.77018 -0.02700
C 	C 	0.27198 0.11118 0.80514 -0.02200
H 	H 	0.28612 0.15639 0.82574 0.06000
O 	O 	0.31080 0.75353 0.38651 -0.70200
O 	O 	0.29441 0.67213 0.44211 -0.69900
H 	H 	0.29845 0.73700 0.36159 0.15500
H 	H 	0.31088 0.70314 0.46430 0.17600
O 	O 	0.29308 0.69697 0.02402 -0.70600
H 	H 	0.28695 0.73113 0.00551 0.17700
C 	C 	0.30139 0.13201 0.64730 0.04600
C 	C 	0.29652 0.15101 0.61211 -0.06300
C 	C 	0.31954 0.07547 0.79689 -0.00400
H 	H 	0.33839 0.98995 0.76362 0.04300
H 	H 	0.00695 0.82779 0.16192 0.04800
O 	O 	0.31904 0.52711 0.42825 -0.41500
O 	O 	0.34646 0.76765 0.08218 -0.70200
H 	H 	0.35762 0.74701 0.10435 0.15700
F 	F 	0.34039 0.98521 0.97453 -0.43300
C 	C 	0.02133 0.07345 0.71779 0.02500
F 	F 	0.35618 0.87292 0.51892 -0.44500
Ni	Ni	0.36268 0.86827 0.39067 1.06700
O 	O 	0.37568 0.86647 0.44387 -0.39000
O 	O 	0.34238 0.56559 0.01763 -0.41000
Ni	Ni	0.37676 0.88200 0.08604 1.06900
O 	O 	0.35799 0.89475 0.03454 -0.38900
H 	H 	0.36257 0.40674 0.42629 0.09200
C 	C 	0.35913 0.18182 0.59189 0.02100
C 	C 	0.36967 0.14597 0.66244 -0.06600
H 	H 	0.35432 0.19510 0.56459 0.04500
H 	H 	0.37408 0.13173 0.68965 0.05300
H 	H 	0.33848 0.47829 0.95863 0.07900
C 	C 	0.38875 0.10400 0.81417 0.05700
C 	C 	0.02701 0.05847 0.75248 -0.01600
Ni	Ni	0.37638 0.70606 0.40611 1.10000
C 	C 	0.38932 0.56290 0.43499 0.31800
Ni	Ni	0.39768 0.74185 0.04228 1.10400
F 	F 	0.38999 0.40181 0.91608 -0.43600
C 	C 	0.39719 0.50011 0.95909 -0.09500
C 	C 	0.42207 0.84120 0.45803 0.33300
C 	C 	0.40337 0.60679 0.00177 0.31100
C 	C 	0.40587 0.89645 0.01140 0.33800
C 	C 	0.40880 0.43851 0.44355 -0.09200
F 	F 	0.43011 0.32084 0.44939 -0.46200
C 	C 	0.43248 0.17695 0.64225 0.02000
C 	C 	0.42745 0.19396 0.60665 -0.08000
C 	C 	0.41396 0.01487 0.97700 0.33700
O 	O 	0.42588 0.63625 0.42524 -0.34000
O 	O 	0.42620 0.83688 0.00866 -0.36200
O 	O 	0.44287 0.79262 0.44042 -0.36000
O 	O 	0.43322 0.68462 0.00516 -0.34200
C 	C 	0.42946 0.90721 0.51601 0.33800
H 	H 	0.44297 0.99783 0.55493 0.09700
C 	C 	0.42882 0.51939 0.45136 -0.13500
C 	C 	0.44947 0.39883 0.45744 0.33300
C 	C 	0.44869 0.97197 0.99404 -0.12600
C 	C 	0.45521 0.08783 0.96174 -0.08900
H 	H 	0.42771 0.11887 0.94766 0.11000
C 	C 	0.43107 0.46383 0.93739 0.34600
C 	C 	0.43904 0.56563 0.98065 -0.12200
C 	C 	0.44412 0.13653 0.83068 -0.09900
O 	O 	0.48311 0.18529 0.55197 -0.38600
O 	O 	0.45600 0.74970 0.36972 -0.37100
O 	O 	0.46630 0.87683 0.38172 -0.39700
C 	C 	0.47034 0.97313 0.53711 -0.08900
C 	C 	0.46358 0.88204 0.48951 -0.12400
H 	H 	0.48451 0.18539 0.65402 0.04000
C 	C 	0.48342 0.82633 0.36241 0.27500
O 	O 	0.48404 0.90853 0.07705 -0.40700
O 	O 	0.50646 0.25314 0.86297 -0.36700
C 	C 	0.50462 0.18392 0.85208 0.29600
C 	C 	0.49181 0.21644 0.58384 0.30100
O 	O 	0.49887 0.79399 0.06356 -0.35600
C 	C 	0.48926 0.55993 0.47367 0.33700
C 	C 	0.50721 0.49275 0.93717 -0.14300
C 	C 	0.51510 0.59354 0.98086 0.33700
O 	O 	0.52058 0.37705 0.91377 -0.34000
O 	O 	0.51689 0.33270 0.51240 -0.39200
C 	C 	0.51590 0.85916 0.08287 0.29500
H 	H 	0.52540 0.95928 0.32333 0.01900
C 	C 	0.51072 0.43998 0.47913 -0.12600
F 	F 	0.50751 0.63725 0.48275 -0.43800
C 	C 	0.52485 0.00383 0.99654 -0.08500
C 	C 	0.53025 0.52053 0.48715 -0.09000
C 	C 	0.53163 0.11920 0.96371 -0.12300
C 	C 	0.54379 0.45484 0.91469 0.32500
O 	O 	0.54613 0.23999 0.93350 -0.36200
O 	O 	0.54017 0.14827 0.86963 -0.40300
Ni	Ni	0.54662 0.23677 0.50999 1.08300
C 	C 	0.53968 0.91224 0.48937 -0.08600
C 	C 	0.54888 0.55742 0.95920 -0.08700
F 	F 	0.55631 0.65484 0.00250 -0.44000
C 	C 	0.54454 0.01449 0.53102 -0.12900
O 	O 	0.55739 0.25659 0.59733 -0.39000
C 	C 	0.55191 0.39805 0.49502 0.31800
C 	C 	0.54799 0.85914 0.33963 -0.07700
H 	H 	0.55219 0.97221 0.01034 0.10400
Ni	Ni	0.58707 0.32492 0.89522 1.10400
C 	C 	0.57516 0.19061 0.94342 0.33200
O 	O 	0.57449 0.14278 0.50735 -0.39900
C 	C 	0.57562 0.10046 0.53500 0.34800
C 	C 	0.56320 0.93084 0.32224 0.01400
C 	C 	0.58030 0.97872 0.51019 0.34300
H 	H 	0.56695 0.88986 0.47048 0.11400
H 	H 	0.57644 0.55229 0.50446 0.10000
C 	C 	0.56610 0.07736 0.98195 0.33200
O 	O 	0.60925 0.49783 0.90375 -0.41700
O 	O 	0.59597 0.13321 0.56669 -0.36900
C 	C 	0.58054 0.88629 0.10375 -0.10300
C 	C 	0.59764 0.82291 0.33756 0.02000
H 	H 	0.58718 0.76798 0.35093 0.05100
H 	H 	0.60758 0.57911 0.95987 0.04600
O 	O 	0.62316 0.43403 0.49798 -0.37400
O 	O 	0.63759 0.19753 0.93107 -0.37700
C 	C 	0.62782 0.96679 0.30380 -0.06800
H 	H 	0.63905 0.02241 0.29086 0.05100
Ni	Ni	0.65048 0.19380 0.87835 1.07000
Ni	Ni	0.65008 0.25311 0.57649 1.10400
O 	O 	0.64430 0.29600 0.52906 -0.70400
C 	C 	0.63426 0.91018 0.12194 0.05500
F 	F 	0.65332 0.01455 0.50653 -0.43700
F 	F 	0.63953 0.10809 0.98578 -0.43400
C 	C 	0.66237 0.85909 0.31910 -0.06500
H 	H 	0.67237 0.36551 0.94927 0.17400
O 	O 	0.66667 0.30403 0.87218 -0.70400
O 	O 	0.67433 0.39134 0.92646 -0.70300
H 	H 	0.66760 0.31583 0.84687 0.15500
Ni	Ni	0.67598 0.41342 0.54067 1.10200
H 	H 	0.67362 0.38868 0.60566 0.15600
C 	C 	0.00201 0.09662 0.77960 0.03200
O 	O 	0.68301 0.23150 0.62493 -0.36800
H 	H 	0.68002 0.28773 0.51370 0.18000
C 	C 	0.67803 0.93161 0.30249 0.04500
Ni	Ni	0.69730 0.50425 0.93432 1.07900
O 	O 	0.69708 0.37267 0.58612 -0.70300
H 	H 	0.68503 0.82475 0.16212 0.04400
H 	H 	0.70057 0.83114 0.31811 0.05600
O 	O 	0.71357 0.52909 0.55603 -0.37100
C 	C 	0.69734 0.94024 0.14420 -0.00800
H 	H 	0.71528 0.10428 0.64141 0.04800
C 	C 	0.71609 0.88826 0.16453 -0.02500
H 	H 	0.72268 0.06254 0.13183 0.04800
H 	H 	0.00549 0.83696 0.31669 0.04500
C 	C 	0.74622 0.97065 0.28446 -0.02600
C 	C 	0.75255 0.26192 0.63385 0.27500
C 	C 	0.73729 0.02218 0.14747 -0.02400
Ni	Ni	0.75509 0.38415 0.89873 1.10600
O 	O 	0.75953 0.21966 0.88954 -0.38700
O 	O 	0.75955 0.46149 0.85933 -0.39000
C 	C 	0.76113 0.14184 0.65773 0.02200
H 	H 	0.76701 0.76161 0.65762 0.04300
C 	C 	0.77246 0.55776 0.57633 0.29800
O 	O 	0.77106 0.56327 0.89713 -0.38600
O 	O 	0.76939 0.44302 0.51107 -0.36100
C 	C 	0.77213 0.53651 0.86517 0.31900
O 	O 	0.78014 0.51223 0.96708 -0.40200
C 	C 	0.77453 0.91834 0.18830 -0.04600
C 	C 	0.77847 0.22351 0.66094 -0.08300
H 	H 	0.78930 0.87809 0.20391 0.04500
C 	C 	0.79411 0.63455 0.59193 -0.10700
H 	H 	0.79718 0.04846 0.66731 0.05700
C 	C 	0.79548 0.05225 0.17128 -0.04500
O 	O 	0.80071 0.30840 0.61207 -0.39600
Ni	Ni	0.80132 0.41485 0.59404 1.06800
C 	C 	0.80295 0.00361 0.26931 -0.00100
C 	C 	0.80346 0.59344 0.83791 -0.09600
C 	C 	0.80805 0.11045 0.67198 -0.06500
H 	H 	0.81188 0.78137 0.81485 0.04500
C 	C 	0.81301 0.27094 0.87164 0.27600
C 	C 	0.81384 0.00042 0.19191 0.02300
O 	O 	0.82091 0.37965 0.54589 -0.38600
O 	O 	0.82050 0.52534 0.57579 -0.40900
C 	C 	0.81935 0.69801 0.60661 0.05700
C 	C 	0.99943 0.92325 0.19248 -0.08800
C 	C 	0.99860 0.04146 0.22498 -0.02500
C 	C 	0.99266 0.05213 0.26024 -0.02200
H 	H 	0.98482 0.39514 0.30872 0.02700
C 	C 	0.97625 0.29184 0.27890 -0.09700
C 	C 	0.99461 0.61615 0.01414 0.31500
H 	H 	0.99740 0.77389 0.73194 0.04300
C 	C 	0.97575 0.86215 0.64689 -0.06600
C 	C 	0.99424 0.28563 0.18345 -0.08300
H 	H 	0.95778 0.79503 0.59869 0.04900
C 	C 	0.99295 0.58888 0.48477 0.31300
C 	C 	0.99017 0.93667 0.70297 -0.01500
H 	H 	0.94073 0.89970 0.19019 0.05500
H 	H 	0.91818 0.27158 0.27448 0.05800
O 	O 	0.82443 0.34675 0.87227 -0.35100
O 	O 	0.83984 0.47099 0.92494 -0.35500
C 	C 	0.83470 0.49386 0.95751 0.33600
C 	C 	0.82429 0.42336 0.51872 0.33500
C 	C 	0.99400 0.92007 0.73775 -0.01700
C 	C 	0.95400 0.07263 0.20133 -0.02900
H 	H 	0.95843 0.06355 0.17269 0.04200
C 	C 	0.94248 0.09343 0.27001 -0.03200
H 	H 	0.93792 0.10249 0.29864 0.04500
C 	C 	0.97848 0.15945 0.21345 -0.02200
C 	C 	0.87697 0.03209 0.21565 -0.01200
C 	C 	0.97262 0.17014 0.24876 -0.02300
C 	C 	0.87087 0.04285 0.25084 0.00400
H 	H 	0.94256 0.28066 0.19355 0.05300
H 	H 	0.82634 0.11578 0.17378 0.04600
C 	C 	0.99325 0.93510 0.29183 -0.08600
H 	H 	0.94388 0.89774 0.27770 0.05500
C 	C 	0.92100 0.54625 0.49498 -0.08300
C 	C 	0.89557 0.46472 0.50170 -0.12500
C 	C 	0.94259 0.42579 0.49704 0.32100
F 	F 	0.91879 0.34677 0.50261 -0.43700
H 	H 	0.88596 0.57739 0.49898 0.10400
C 	C 	0.87142 0.16030 0.69010 0.04200
C 	C 	0.97105 0.10687 0.70661 -0.01800
C 	C 	0.83654 0.27071 0.68315 0.01500
C 	C 	0.88338 0.23929 0.69744 -0.06800
C 	C 	0.92624 0.13199 0.69886 -0.01800
H 	H 	0.84910 0.33338 0.68671 0.01400
H 	H 	0.93096 0.27741 0.71259 0.04700
C 	C 	0.85755 0.77080 0.62548 -0.01000
C 	C 	0.93247 0.80978 0.62102 -0.01600
C 	C 	0.86826 0.84574 0.67952 -0.04800
C 	C 	0.82511 0.79096 0.65416 -0.02300
C 	C 	0.94407 0.87841 0.67676 0.02700
H 	H 	0.84299 0.86181 0.70148 0.04700
C 	C 	0.92526 0.58786 0.99889 -0.07600
C 	C 	0.89721 0.51404 0.98123 -0.13000
C 	C 	0.93540 0.46493 0.98240 0.32900
F 	F 	0.90659 0.39124 0.96732 -0.44700
H 	H 	0.89529 0.62538 0.99877 0.09500
C 	C 	0.94925 0.17634 0.82081 0.05600
C 	C 	0.92165 0.14898 0.85382 -0.07100
C 	C 	0.88117 0.18368 0.87167 0.02000
C 	C 	0.89907 0.27616 0.82436 0.01500
C 	C 	0.93971 0.24150 0.80659 -0.07200
C 	C 	0.97909 0.13199 0.79955 -0.05300
C 	C 	0.86744 0.24561 0.85641 -0.07800
H 	H 	0.92930 0.09910 0.86512 0.05900
H 	H 	0.85851 0.16072 0.89681 0.05400
H 	H 	0.88929 0.32412 0.81238 0.03400
H 	H 	0.96119 0.26319 0.78110 0.05100
C 	C 	0.86505 0.71020 0.79309 -0.00600
C 	C 	0.91667 0.70808 0.76915 -0.02800
C 	C 	0.95626 0.77535 0.74962 -0.04600
C 	C 	0.89134 0.84631 0.77711 -0.04700
C 	C 	0.85159 0.77906 0.79647 -0.02700
C 	C 	0.83108 0.64499 0.81674 0.04900
C 	C 	0.94456 0.84519 0.75397 0.02000
H 	H 	0.92758 0.65527 0.76634 0.04000
H 	H 	0.88198 0.89990 0.78073 0.04400
