data_crystal

_cell_length_a 18.16345
_cell_length_b 18.89817
_cell_length_c 44.06244
_cell_angle_alpha 95.42815
_cell_angle_beta  95.42667
_cell_angle_gamma 126.42439

_symmetry_space_group_name_	'P 1'
_symmetry_space_group_name_H-M	'P 1'

loop_
_symmetry_equiv_pos_as_xyz
  x,y,z

loop_
_atom_site_label
_atom_site_type_symbol
_atom_site_fract_x
_atom_site_fract_y
_atom_site_fract_z
_atom_site_charge
C 	C 	0.92084 0.00489 0.98282 0.15500
N 	N 	0.87141 0.91556 0.98302 -0.07300
C 	C 	0.91242 0.87481 0.97893 0.17300
N 	N 	0.00238 0.92352 0.97524 -0.07800
C 	C 	0.05163 0.01237 0.97533 0.16700
N 	N 	0.01137 0.05322 0.97970 -0.08000
C 	C 	0.90567 0.00299 0.47780 0.16000
N 	N 	0.85953 0.91638 0.48113 -0.07400
C 	C 	0.90617 0.88125 0.48441 0.18500
N 	N 	0.99926 0.93340 0.48501 -0.09100
C 	C 	0.04575 0.02026 0.48214 0.17500
N 	N 	0.99918 0.05550 0.47898 -0.09600
Cu	Cu	0.78179 0.35847 0.97783 0.93900
Cu	Cu	0.74011 0.28039 0.04236 0.92300
Cu	Cu	0.62637 0.32335 0.01019 0.92500
Cu	Cu	0.60537 0.33581 0.94274 0.91600
C 	C 	0.73372 0.32221 0.91139 0.31600
O 	O 	0.82520 0.48566 0.97497 -0.30300
C 	C 	0.65653 0.34093 0.07815 0.31900
O 	O 	0.63551 0.28106 0.96966 -0.62800
O 	O 	0.75879 0.37145 0.01993 -0.63200
O 	O 	0.84825 0.30585 0.98715 -0.29700
O 	O 	0.73255 0.20139 0.00999 -0.35700
O 	O 	0.69388 0.36135 0.91444 -0.35400
O 	O 	0.49974 0.28533 0.99954 -0.29500
C 	C 	0.44337 0.23740 0.97269 0.30400
C 	C 	0.77396 0.51244 0.98059 0.29200
O 	O 	0.68383 0.45309 0.97923 -0.34300
O 	O 	0.47296 0.25728 0.94637 -0.34100
O 	O 	0.78415 0.32480 0.93560 -0.33000
C 	C 	0.80452 0.22875 0.99670 0.30000
O 	O 	0.62046 0.35258 0.05338 -0.28900
O 	O 	0.72464 0.33414 0.07775 -0.34200
H 	H 	0.59833 0.21515 0.96395 0.20900
H 	H 	0.80003 0.43307 0.03226 0.24700
Cu	Cu	0.59380 0.18945 0.50746 0.94000
Cu	Cu	0.62417 0.17605 0.43249 0.89800
Cu	Cu	0.65539 0.34370 0.47348 0.92100
Cu	Cu	0.62821 0.36848 0.53778 0.93400
C 	C 	0.64252 0.25139 0.57371 0.31200
O 	O 	0.46524 0.15219 0.51143 -0.30900
C 	C 	0.63117 0.31588 0.40864 0.31600
O 	O 	0.68433 0.33053 0.51429 -0.63200
O 	O 	0.57715 0.21040 0.46446 -0.61900
O 	O 	0.63803 0.11441 0.50127 -0.26800
O 	O 	0.60518 0.08010 0.44872 -0.38100
O 	O 	0.60817 0.29564 0.57031 -0.29800
O 	O 	0.73837 0.47178 0.48242 -0.33300
C 	C 	0.73451 0.52213 0.50400 0.30600
C 	C 	0.43912 0.20150 0.50459 0.29400
O 	O 	0.50154 0.28594 0.50303 -0.33400
O 	O 	0.69700 0.49262 0.52863 -0.29100
O 	O 	0.62804 0.19249 0.55048 -0.28300
C 	C 	0.65734 0.09633 0.47498 0.28700
O 	O 	0.61429 0.34822 0.43226 -0.34600
O 	O 	0.67485 0.28098 0.41351 -0.38800
H 	H 	0.75163 0.36233 0.52195 0.23700
H 	H 	0.51167 0.18435 0.45617 0.17500
C 	C 	0.72500 0.25022 0.66288 0.02500
C 	C 	0.76721 0.32848 0.68496 -0.01200
C 	C 	0.78312 0.32755 0.71651 -0.02300
C 	C 	0.75716 0.24826 0.72623 0.02500
C 	C 	0.71962 0.17118 0.70395 -0.02300
C 	C 	0.70338 0.17215 0.67236 -0.01200
C 	C 	0.75930 0.24349 0.75953 0.02700
C 	C 	0.84237 0.30507 0.78118 -0.02400
C 	C 	0.84054 0.31353 0.81294 -0.00900
C 	C 	0.75586 0.26014 0.82322 0.01700
C 	C 	0.67425 0.19377 0.80183 -0.01000
C 	C 	0.67585 0.18550 0.77009 -0.02500
C 	C 	0.75010 0.28213 0.85466 0.08000
C 	C 	0.74378 0.29948 0.88087 -0.06100
C 	C 	0.69563 0.24794 0.63105 0.08100
C 	C 	0.67205 0.24855 0.60463 -0.02300
H 	H 	0.78460 0.38921 0.67777 0.08300
H 	H 	0.81208 0.38742 0.73347 0.07500
H 	H 	0.70027 0.10988 0.71117 0.07400
H 	H 	0.67137 0.11154 0.65538 0.08300
H 	H 	0.90747 0.34910 0.77333 0.07600
H 	H 	0.90415 0.36436 0.82937 0.08100
H 	H 	0.60868 0.15161 0.80965 0.07400
H 	H 	0.61143 0.13727 0.75363 0.07200
C 	C 	0.59712 0.37130 0.16319 0.02300
C 	C 	0.65199 0.45581 0.18256 -0.01300
C 	C 	0.64751 0.46347 0.21410 -0.02300
C 	C 	0.58854 0.38644 0.22648 0.02400
C 	C 	0.52852 0.30269 0.20653 -0.02400
C 	C 	0.53272 0.29525 0.17498 -0.01500
C 	C 	0.59888 0.39159 0.26044 0.02700
C 	C 	0.68492 0.42356 0.27810 -0.02400
C 	C 	0.69168 0.41543 0.30923 -0.00900
C 	C 	0.61258 0.37506 0.32295 0.01700
C 	C 	0.52765 0.34729 0.30588 -0.01000
C 	C 	0.52082 0.35573 0.27472 -0.02400
C 	C 	0.61662 0.35400 0.35333 0.08200
C 	C 	0.62240 0.33734 0.37880 -0.06700
C 	C 	0.61694 0.36103 0.13291 0.07700
C 	C 	0.63359 0.35251 0.10755 -0.02900
H 	H 	0.70125 0.51506 0.17353 0.08500
H 	H 	0.69292 0.52866 0.22917 0.07900
H 	H 	0.48220 0.24284 0.21575 0.06900
H 	H 	0.48934 0.22976 0.16006 0.08000
H 	H 	0.74562 0.45133 0.26735 0.07200
H 	H 	0.75769 0.43754 0.32235 0.07700
H 	H 	0.46632 0.31660 0.31641 0.07900
H 	H 	0.45433 0.33180 0.26142 0.07500
C 	C 	0.73961 0.62821 0.47416 0.07100
C 	C 	0.77492 0.61450 0.50070 0.00800
C 	C 	0.85269 0.68870 0.52225 -0.06700
C 	C 	0.89067 0.77564 0.51725 0.03600
C 	C 	0.85786 0.78918 0.48997 0.06700
C 	C 	0.78314 0.71455 0.46767 -0.09900
C 	C 	0.74570 0.72645 0.43788 0.78900
H 	H 	0.67889 0.57087 0.45819 0.09100
H 	H 	0.94693 0.83323 0.53434 0.10700
C 	C 	0.89413 0.67569 0.55083 0.77700
F 	F 	0.69055 0.64715 0.41635 -0.40700
F 	F 	0.81774 0.78937 0.42436 -0.36700
F 	F 	0.69209 0.75344 0.44453 -0.38500
F 	F 	0.90948 0.61356 0.54263 -0.42000
F 	F 	0.83360 0.64614 0.57155 -0.41100
F 	F 	0.97865 0.75472 0.56567 -0.40500
C 	C 	0.72547 0.03136 0.44848 0.07600
C 	C 	0.72995 0.08267 0.47493 -0.01000
C 	C 	0.80628 0.12330 0.50016 -0.07300
C 	C 	0.86263 0.09509 0.50101 0.02800
C 	C 	0.85538 0.04131 0.47496 0.07800
C 	C 	0.79345 0.01811 0.44733 -0.12700
C 	C 	0.79870 0.97894 0.41668 0.82200
H 	H 	0.66997 0.00297 0.42857 0.08200
H 	H 	0.91250 0.11536 0.52187 0.10100
C 	C 	0.83060 0.19829 0.52544 0.77700
F 	F 	0.76528 0.99917 0.39211 -0.40400
F 	F 	0.74525 0.88709 0.41349 -0.35900
F 	F 	0.88961 0.01323 0.41495 -0.39300
F 	F 	0.77490 0.16251 0.54738 -0.42400
F 	F 	0.81897 0.25643 0.51308 -0.46700
F 	F 	0.92274 0.24800 0.54021 -0.41400
C 	C 	0.20135 0.13206 0.51485 0.03300
C 	C 	0.14768 0.07815 0.48583 0.06400
C 	C 	0.19123 0.07122 0.46199 -0.10200
C 	C 	0.28679 0.11108 0.46879 0.06800
C 	C 	0.33974 0.16167 0.49826 0.00100
C 	C 	0.29742 0.17390 0.52145 -0.07000
C 	C 	0.35411 0.22928 0.55344 0.77600
H 	H 	0.16721 0.13818 0.53267 0.10500
H 	H 	0.32012 0.10230 0.45125 0.07000
C 	C 	0.13521 0.01804 0.42976 0.77000
F 	F 	0.29987 0.23139 0.57302 -0.40800
F 	F 	0.42383 0.31640 0.55090 -0.43600
F 	F 	0.39383 0.19322 0.56685 -0.42300
F 	F 	0.07677 0.03903 0.42000 -0.37700
F 	F 	0.08232 0.92749 0.43032 -0.37700
F 	F 	0.19252 0.03665 0.40829 -0.41900
C 	C 	0.85414 0.74889 0.00708 0.03300
C 	C 	0.86028 0.77803 0.97865 0.07200
C 	C 	0.83579 0.71865 0.95082 -0.10000
C 	C 	0.81598 0.63504 0.95234 0.06700
C 	C 	0.81220 0.60667 0.98080 0.00900
C 	C 	0.83116 0.66378 0.00853 -0.07300
C 	C 	0.82915 0.63493 0.03963 0.77600
H 	H 	0.87175 0.79437 0.02821 0.10600
H 	H 	0.80120 0.59080 0.93123 0.08700
C 	C 	0.83570 0.74611 0.91954 0.78600
F 	F 	0.85842 0.70285 0.06416 -0.41300
F 	F 	0.88752 0.61085 0.04349 -0.43600
F 	F 	0.73940 0.56244 0.04075 -0.43700
F 	F 	0.92602 0.80084 0.91441 -0.38700
F 	F 	0.79802 0.79172 0.91871 -0.36200
F 	F 	0.78312 0.67214 0.89570 -0.40500
C 	C 	0.90566 0.10757 0.01573 0.02900
C 	C 	0.87826 0.05085 0.98724 0.08100
C 	C 	0.82642 0.05277 0.96164 -0.12100
C 	C 	0.80687 0.11479 0.96481 0.08000
C 	C 	0.83686 0.17334 0.99306 0.00500
C 	C 	0.88796 0.17083 0.01871 -0.07100
C 	C 	0.92213 0.23436 0.04943 0.77400
H 	H 	0.94413 0.10463 0.03528 0.10100
H 	H 	0.76703 0.11674 0.94544 0.08400
C 	C 	0.79129 0.98828 0.93112 0.82000
F 	F 	0.98426 0.23282 0.06958 -0.41400
F 	F 	0.84714 0.20999 0.06338 -0.46000
F 	F 	0.96715 0.32123 0.04459 -0.43000
F 	F 	0.73664 0.90121 0.93612 -0.38000
F 	F 	0.86590 0.00421 0.91873 -0.37600
F 	F 	0.73801 0.99714 0.90954 -0.39900
C 	C 	0.21090 0.06082 0.99324 0.03700
C 	C 	0.15042 0.06519 0.97271 0.06800
C 	C 	0.18499 0.11941 0.94989 -0.10000
C 	C 	0.28160 0.17798 0.95116 0.07200
C 	C 	0.34237 0.17437 0.97192 0.00700
C 	C 	0.30578 0.11046 0.99165 -0.07400
C 	C 	0.36739 0.09630 0.01159 0.77500
H 	H 	0.18379 0.01849 0.01046 0.09900
H 	H 	0.30976 0.22658 0.93599 0.09700
C 	C 	0.11987 0.11636 0.92452 0.78700
F 	F 	0.31477 0.01400 0.02068 -0.41800
F 	F 	0.41567 0.16251 0.03793 -0.44200
F 	F 	0.42999 0.09827 0.99534 -0.46300
F 	F 	0.09214 0.16575 0.93633 -0.39600
F 	F 	0.04219 0.02897 0.91297 -0.36500
F 	F 	0.16346 0.15175 0.89994 -0.40200
