data_crystal

_cell_length_a 24.07296
_cell_length_b 24.78461
_cell_length_c 23.11418
_cell_angle_alpha 95.48152
_cell_angle_beta  95.48044
_cell_angle_gamma 125.82299

_symmetry_space_group_name_	'P 1'
_symmetry_space_group_name_H-M	'P 1'

loop_
_symmetry_equiv_pos_as_xyz
  x,y,z

loop_
_atom_site_label
_atom_site_type_symbol
_atom_site_fract_x
_atom_site_fract_y
_atom_site_fract_z
_atom_site_charge
C 	C 	0.05842 0.01353 0.00190 0.06900
N 	N 	0.02730 0.04488 0.99718 -0.09900
C 	C 	0.03589 0.00467 0.39507 0.09500
N 	N 	0.01059 0.04031 0.40697 -0.12500
Cu	Cu	0.63712 0.24147 0.01474 0.92100
Cu	Cu	0.71782 0.25684 0.90335 0.87400
Cu	Cu	0.68500 0.35198 0.93900 0.90000
Cu	Cu	0.61784 0.35658 0.04135 0.89500
C 	C 	0.63694 0.29016 0.13222 0.27900
O 	O 	0.53164 0.19201 0.99762 -0.34000
C 	C 	0.68703 0.31172 0.81427 0.28300
O 	O 	0.68574 0.34617 0.02117 -0.64300
O 	O 	0.64269 0.25304 0.93103 -0.63300
O 	O 	0.68794 0.20001 0.02357 -0.34300
O 	O 	0.77221 0.27635 0.97756 -0.41900
O 	O 	0.59922 0.30825 0.10922 -0.37700
O 	O 	0.73016 0.44897 0.95405 -0.36300
C 	C 	0.71422 0.47874 0.99241 0.28300
C 	C 	0.50391 0.21729 0.96973 0.24900
O 	O 	0.54317 0.28120 0.96504 -0.35800
O 	O 	0.65585 0.44334 0.01313 -0.38100
O 	O 	0.64525 0.24956 0.09942 -0.34800
C 	C 	0.74970 0.22860 0.00909 0.24600
O 	O 	0.70013 0.36003 0.85634 -0.37300
O 	O 	0.68335 0.25923 0.82696 -0.41300
H 	H 	0.73243 0.37794 0.04674 0.16300
H 	H 	0.59773 0.22337 0.90277 0.17700
Cu	Cu	0.74415 0.34995 0.43019 0.92800
Cu	Cu	0.74820 0.29230 0.55148 0.87400
Cu	Cu	0.64266 0.31498 0.51663 0.89700
Cu	Cu	0.62250 0.36424 0.40748 0.89600
C 	C 	0.67984 0.33377 0.31201 0.27900
O 	O 	0.79427 0.45133 0.43511 -0.33300
C 	C 	0.69878 0.32883 0.64204 0.28300
O 	O 	0.63803 0.30314 0.43260 -0.63600
O 	O 	0.74394 0.35774 0.51665 -0.63700
O 	O 	0.78600 0.30013 0.42352 -0.34400
O 	O 	0.71721 0.22851 0.48150 -0.43200
O 	O 	0.66086 0.37080 0.33353 -0.37300
O 	O 	0.54293 0.26930 0.50903 -0.36300
C 	C 	0.50798 0.27965 0.46986 0.25400
C 	C 	0.76999 0.48181 0.45946 0.25200
O 	O 	0.70876 0.44506 0.47458 -0.38000
O 	O 	0.54049 0.33384 0.44543 -0.36900
O 	O 	0.72456 0.32934 0.34501 -0.34500
C 	C 	0.75877 0.24326 0.44334 0.25800
O 	O 	0.64492 0.31139 0.60223 -0.37500
O 	O 	0.75334 0.33584 0.62616 -0.41200
H 	H 	0.60397 0.25565 0.41145 0.16400
H 	H 	0.77581 0.40438 0.54003 0.18000
C 	C 	0.69206 0.32679 0.70299 -0.04300
C 	C 	0.68870 0.32189 0.75416 -0.04100
C 	C 	0.65436 0.30160 0.19551 -0.03900
C 	C 	0.66719 0.31469 0.24887 -0.03500
C 	C 	0.78250 0.62636 0.43755 0.00700
O 	O 	0.83458 0.57749 0.40566 -0.18400
C 	C 	0.79999 0.55183 0.45272 0.04100
C 	C 	0.77261 0.58406 0.47416 -0.05900
H 	H 	0.73445 0.56549 0.50282 0.05700
C 	C 	0.85737 0.07634 0.46280 0.11100
C 	C 	0.79814 0.07470 0.46349 -0.08300
C 	C 	0.80651 0.13564 0.46310 0.00100
C 	C 	0.86675 0.19245 0.45272 0.11700
C 	C 	0.92382 0.19216 0.44592 -0.09500
C 	C 	0.91951 0.13502 0.45652 0.02500
O 	O 	0.85306 0.01803 0.44834 -0.20000
C 	C 	0.91818 0.04753 0.43209 0.10500
C 	C 	0.95791 0.11694 0.43665 -0.09500
O 	O 	0.85866 0.23928 0.43339 -0.19000
C 	C 	0.78748 0.20523 0.43430 0.03300
C 	C 	0.75548 0.14168 0.44886 -0.05700
H 	H 	0.74731 0.02747 0.46167 0.06600
H 	H 	0.96863 0.23361 0.43125 0.07000
H 	H 	0.70495 0.11191 0.46178 0.05000
C 	C 	0.33449 0.19596 0.40553 0.12000
C 	C 	0.27216 0.18691 0.38630 -0.09300
C 	C 	0.21044 0.12045 0.37206 0.02400
C 	C 	0.20886 0.06640 0.38541 0.11300
C 	C 	0.27084 0.07679 0.40978 -0.08200
C 	C 	0.33364 0.14163 0.41504 0.00400
O 	O 	0.39533 0.25822 0.43311 -0.18800
C 	C 	0.43165 0.23607 0.45947 0.04400
C 	C 	0.39352 0.16636 0.45140 -0.05600
O 	O 	0.14390 0.01197 0.39330 -0.20100
C 	C 	0.10744 0.03921 0.38456 0.10200
C 	C 	0.14643 0.10359 0.37198 -0.08700
H 	H 	0.27135 0.23006 0.38530 0.07100
H 	H 	0.26964 0.03708 0.42709 0.06800
H 	H 	0.41513 0.13889 0.45765 0.05000
H 	H 	0.13444 0.13934 0.37883 0.06500
O 	O 	0.72266 0.58355 0.01669 -0.18400
C 	C 	0.75470 0.55271 0.00355 0.02800
C 	C 	0.82590 0.59397 0.02380 -0.05200
H 	H 	0.85831 0.57699 0.02838 0.04500
C 	C 	0.79145 0.11453 0.00000 0.11100
C 	C 	0.78935 0.05824 0.00921 -0.11800
C 	C 	0.84322 0.05616 0.99356 0.06500
C 	C 	0.90226 0.11185 0.97972 0.10000
C 	C 	0.90762 0.17116 0.97726 -0.07700
C 	C 	0.84849 0.16849 0.98298 0.00600
O 	O 	0.74853 0.12865 0.02198 -0.18700
C 	C 	0.78543 0.19669 0.01574 0.02000
C 	C 	0.84716 0.22152 0.99547 -0.04400
O 	O 	0.96012 0.11144 0.98771 -0.19300
C 	C 	0.93000 0.05053 0.00860 0.10400
C 	C 	0.86060 0.01757 0.01247 -0.12900
H 	H 	0.74858 0.01873 0.02885 0.07300
H 	H 	0.95627 0.21773 0.97313 0.06600
H 	H 	0.87764 0.26807 0.97850 0.04600
C 	C 	0.20093 0.03771 0.94347 0.10900
C 	C 	0.25834 0.03596 0.94647 -0.09300
C 	C 	0.31902 0.08967 0.93029 0.01400
C 	C 	0.32665 0.14767 0.92092 0.11900
C 	C 	0.27134 0.15210 0.92378 -0.09100
C 	C 	0.20698 0.09389 0.93027 0.02700
C 	C 	0.12053 0.03594 0.97583 0.11300
C 	C 	0.15633 0.09332 0.95114 -0.08900
O 	O 	0.39567 0.20473 0.92996 -0.18800
C 	C 	0.42846 0.17553 0.94654 0.04600
C 	C 	0.38339 0.10721 0.94728 -0.06100
H 	H 	0.27922 0.19986 0.92390 0.07300
H 	H 	0.15669 0.13708 0.96172 0.07200
H 	H 	0.39560 0.07990 0.97302 0.06300
C 	C 	0.96623 0.01931 0.01674 0.07300
C 	C 	0.94452 0.00829 0.41716 0.08600
H 	H 	0.00101 0.14676 0.41407 0.06900
C 	C 	0.82028 0.62342 0.39821 0.11900
C 	C 	0.78049 0.64539 0.04886 0.12000
C 	C 	0.84122 0.65115 0.05463 0.00400
H 	H 	0.76277 0.69017 0.48798 0.07200
C 	C 	0.78258 0.68291 0.45018 -0.08200
C 	C 	0.78289 0.70354 0.05742 -0.09200
C 	C 	0.90671 0.71455 0.06585 -0.08200
H 	H 	0.73616 0.70024 0.04600 0.07100
H 	H 	0.95333 0.71903 0.06022 0.06800
C 	C 	0.85692 0.67575 0.36655 -0.09100
H 	H 	0.89315 0.67801 0.34057 0.07200
C 	C 	0.84747 0.72671 0.37192 0.02500
C 	C 	0.81323 0.73200 0.41429 0.11400
C 	C 	0.84830 0.76642 0.07746 0.02300
O 	O 	0.14615 0.99784 0.97227 -0.18200
H 	H 	0.25692 0.99611 0.96371 0.08300
N 	N 	0.93637 0.96225 0.04045 -0.12000
N 	N 	0.02848 0.95709 0.02618 -0.09700
N 	N 	0.90351 0.94022 0.41503 -0.10200
C 	C 	0.92841 0.90431 0.40210 0.10100
O 	O 	0.83290 0.79717 0.43130 -0.19500
C 	C 	0.88274 0.83024 0.39571 0.10500
C 	C 	0.89203 0.78892 0.36053 -0.08700
C 	C 	0.90935 0.77250 0.07981 0.11400
O 	O 	0.96645 0.83628 0.07461 -0.19800
C 	C 	0.93371 0.86745 0.06775 0.10300
C 	C 	0.86335 0.82626 0.06929 -0.08600
H 	H 	0.82578 0.83287 0.04884 0.06500
H 	H 	0.83205 0.97866 0.03838 0.08100
C 	C 	0.96725 0.93090 0.04479 0.09500
N 	N 	0.99478 0.93678 0.39266 -0.11500
H 	H 	0.93842 0.80601 0.34228 0.07100
