data_crystal

_cell_length_a 18.21426
_cell_length_b 17.86354
_cell_length_c 49.71060
_cell_angle_alpha 89.64208
_cell_angle_beta  89.64763
_cell_angle_gamma 119.43854

_symmetry_space_group_name_	'P 1'
_symmetry_space_group_name_H-M	'P 1'

loop_
_symmetry_equiv_pos_as_xyz
  x,y,z

loop_
_atom_site_label
_atom_site_type_symbol
_atom_site_fract_x
_atom_site_fract_y
_atom_site_fract_z
_atom_site_charge
C 	C 	0.03511 0.12112 0.67081 0.29500
H 	H 	0.00595 0.03136 0.74800 0.15100
O 	O 	0.99679 0.09327 0.24757 -0.70400
C 	C 	0.04929 0.15429 0.64296 -0.08100
C 	C 	0.06963 0.13138 0.59587 -0.04600
C 	C 	0.01369 0.50128 0.98067 0.09300
H 	H 	0.96354 0.78635 0.21931 0.06200
C 	C 	0.09621 0.09083 0.57598 0.09800
Ni	Ni	0.01144 0.91380 0.73386 1.11100
Ni	Ni	0.11763 0.11989 0.72169 1.12100
O 	O 	0.07008 0.95895 0.77048 -0.35400
O 	O 	0.08433 0.18776 0.74614 -0.37100
O 	O 	0.08592 0.16918 0.68996 -0.37200
O 	O 	0.01344 0.01932 0.72921 -0.72700
C 	C 	0.12378 0.21420 0.19945 0.30400
C 	C 	0.08434 0.25756 0.27652 0.28800
C 	C 	0.06334 0.95686 0.22526 0.29400
C 	C 	0.04041 0.99548 0.29350 0.27900
O 	O 	0.08483 0.24853 0.21246 -0.36500
O 	O 	0.08482 0.07909 0.28860 -0.38800
O 	O 	0.98831 0.94677 0.22009 -0.36100
C 	C 	0.14343 0.30697 0.07110 -0.02400
C 	C 	0.08326 0.08274 0.15853 0.08800
N 	N 	0.04638 0.01032 0.16400 -0.10100
H 	H 	0.11995 0.36872 0.03743 0.05800
C 	C 	0.04583 0.75255 0.19775 -0.05100
C 	C 	0.02665 0.80927 0.21132 0.00000
C 	C 	0.98160 0.66382 0.19481 0.12500
C 	C 	0.06165 0.25822 0.40834 -0.05300
C 	C 	0.10789 0.30554 0.43060 0.01500
C 	C 	0.09270 0.22779 0.36186 0.02600
C 	C 	0.08510 0.25323 0.30618 -0.07900
C 	C 	0.01508 0.18754 0.31996 0.00300
C 	C 	0.01976 0.17253 0.34745 -0.04900
H 	H 	0.08693 0.34362 0.44182 0.04900
C 	C 	0.06774 0.87663 0.30931 0.03000
H 	H 	0.11881 0.79379 0.31924 0.06400
C 	C 	0.05465 0.54043 0.49991 0.08700
C 	C 	0.06972 0.57854 0.44472 0.09000
C 	C 	0.13711 0.57791 0.45832 -0.10700
C 	C 	0.13020 0.56111 0.48635 0.10800
Br	Br	0.05386 0.55035 0.53849 -0.19000
Br	Br	0.08264 0.61472 0.40750 -0.19900
C 	C 	0.07451 0.11529 0.62329 0.01800
C 	C 	0.12796 0.33883 0.55279 0.10100
N 	N 	0.11748 0.05833 0.56003 -0.10600
H 	H 	0.09514 0.07016 0.62932 0.04500
N 	N 	0.08322 0.89601 0.63717 -0.10500
C 	C 	0.03225 0.55513 0.00324 -0.11600
Br	Br	0.10045 0.52050 0.95463 -0.18600
Br	Br	0.98725 0.60421 0.05382 -0.15700
C 	C 	0.03918 0.35137 0.79593 -0.04700
C 	C 	0.05579 0.30697 0.77584 -0.01200
C 	C 	0.10845 0.42418 0.80858 0.09700
H 	H 	0.12052 0.32795 0.76993 0.05700
C 	C 	0.02709 0.07522 0.81104 0.05300
C 	C 	0.05571 0.25917 0.07902 0.08500
C 	C 	0.09662 0.22002 0.39150 0.02500
C 	C 	0.16726 0.36102 0.04835 0.01400
C 	C 	0.12910 0.17284 0.15133 0.03000
H 	H 	0.13606 0.14685 0.10933 0.06500
C 	C 	0.12996 0.03981 0.77373 0.28000
C 	C 	0.17223 0.00062 0.70079 0.29200
O 	O 	0.17264 0.08924 0.75271 -0.37000
O 	O 	0.13189 0.94481 0.72020 -0.35700
O 	O 	0.15256 0.05971 0.69432 -0.38200
O 	O 	0.19628 0.53011 0.42359 -0.37400
C 	C 	0.12161 0.60915 0.01156 0.34300
O 	O 	0.15181 0.69107 0.01728 -0.35300
O 	O 	0.17199 0.57662 0.01017 -0.36900
Ni	Ni	0.11296 0.12490 0.25103 1.12100
O 	O 	0.11426 0.01539 0.24223 -0.38100
O 	O 	0.14387 0.16179 0.21193 -0.36600
O 	O 	0.13941 0.24488 0.26257 -0.36400
C 	C 	0.20616 0.30558 0.08724 0.02100
C 	C 	0.18964 0.28262 0.11623 0.02700
C 	C 	0.15107 0.19619 0.12427 -0.05600
C 	C 	0.14799 0.23710 0.17084 -0.07500
C 	C 	0.18789 0.32374 0.16279 0.01500
C 	C 	0.20863 0.34680 0.13567 -0.03900
C 	C 	0.24883 0.43645 0.12787 0.10000
N 	N 	0.28113 0.50823 0.12160 -0.11100
H 	H 	0.20258 0.37326 0.17764 0.05100
C 	C 	0.12641 0.78308 0.18621 0.03000
C 	C 	0.08772 0.89628 0.21372 -0.06900
C 	C 	0.13759 0.73869 0.16297 0.02400
C 	C 	0.11675 0.75559 0.13748 -0.05200
C 	C 	0.14966 0.73852 0.11440 0.04100
C 	C 	0.14742 0.77895 0.08936 0.07800
N 	N 	0.14584 0.81184 0.06940 -0.11100
H 	H 	0.08226 0.79057 0.13574 0.06700
C 	C 	0.16154 0.20784 0.40204 -0.05100
C 	C 	0.19104 0.32202 0.43326 -0.07000
C 	C 	0.16177 0.29491 0.34822 -0.06100
C 	C 	0.15870 0.30719 0.32051 0.03000
C 	C 	0.12195 0.85510 0.32295 -0.05200
C 	C 	0.07339 0.95769 0.31357 -0.06400
Br	Br	0.21902 0.55559 0.50566 -0.19900
N 	N 	0.19226 0.39616 0.55881 -0.09100
C 	C 	0.14936 0.93123 0.64675 0.08600
N 	N 	0.16392 0.48252 0.81873 -0.10200
C 	C 	0.12358 0.08826 0.84725 -0.05900
C 	C 	0.10328 0.07692 0.81990 0.03500
C 	C 	0.15829 0.06991 0.80124 -0.07500
H 	H 	0.08082 0.09303 0.86154 0.06400
C 	C 	0.00908 0.18255 0.74492 0.25200
C 	C 	0.20978 0.58538 0.44281 0.34500
O 	O 	0.19765 0.66734 0.06941 -0.36800
C 	C 	0.25294 0.41777 0.04314 -0.06300
C 	C 	0.19016 0.86700 0.19157 -0.05600
C 	C 	0.17084 0.92472 0.20438 0.03400
C 	C 	0.19519 0.69330 0.11662 -0.07800
C 	C 	0.18192 0.69293 0.16539 -0.03700
C 	C 	0.20096 0.67168 0.19156 0.09900
C 	C 	0.20844 0.25843 0.42372 0.02900
C 	C 	0.23126 0.37563 0.30693 0.08900
H 	H 	0.18296 0.16971 0.39111 0.06400
H 	H 	0.21808 0.33751 0.35924 0.07200
C 	C 	0.18215 0.91321 0.34072 0.02300
C 	C 	0.12678 0.01100 0.33386 0.00100
H 	H 	0.12862 0.07134 0.33826 0.04900
H 	H 	0.19272 0.87502 0.39285 0.07200
N 	N 	0.18847 0.91805 0.89659 -0.09800
C 	C 	0.20905 0.66894 0.14219 0.01900
C 	C 	0.02503 0.21490 0.63512 0.04600
C 	C 	0.04773 0.26726 0.54533 -0.01800
N 	N 	0.98650 0.22673 0.86434 -0.09900
C 	C 	0.20098 0.09868 0.85608 0.02500
C 	C 	0.25635 0.41146 0.42884 0.29700
N 	N 	0.21624 0.65470 0.21253 -0.10400
C 	C 	0.23189 0.97521 0.65875 0.02100
C 	C 	0.24101 0.99773 0.68613 -0.05900
N 	N 	0.28932 0.43024 0.29598 -0.09600
O 	O 	0.28283 0.46548 0.44959 -0.34200
O 	O 	0.28613 0.63476 0.45156 -0.35600
C 	C 	0.23372 0.67730 0.09268 0.31200
C 	C 	0.28923 0.34420 0.07737 -0.04800
C 	C 	0.28259 0.25608 0.43248 0.09700
C 	C 	0.18280 0.99045 0.34684 -0.02500
C 	C 	0.24441 0.89228 0.35267 0.03100
C 	C 	0.23565 0.86636 0.37970 -0.04400
C 	C 	0.23571 0.08030 0.80997 0.01600
C 	C 	0.21555 0.99130 0.89905 0.11800
C 	C 	0.27751 0.50791 0.03786 0.30700
Ni	Ni	0.27657 0.55031 0.39207 1.12500
O 	O 	0.27076 0.43930 0.40359 -0.37100
O 	O 	0.27472 0.65872 0.38334 -0.36800
Ni	Ni	0.25459 0.75874 0.04081 1.12900
O 	O 	0.28466 0.55593 0.05840 -0.36500
O 	O 	0.30258 0.54210 0.01369 -0.34500
C 	C 	0.31273 0.39965 0.05497 0.02900
C 	C 	0.23474 0.01422 0.20575 0.08500
H 	H 	0.25306 0.88963 0.18342 0.06600
H 	H 	0.24341 0.63394 0.14405 0.05300
C 	C 	0.27992 0.82656 0.38952 0.04000
C 	C 	0.27809 0.80940 0.41800 0.10200
N 	N 	0.27667 0.79635 0.44087 -0.08800
Br	Br	0.24877 0.96038 0.98388 -0.16800
C 	C 	0.25807 0.09619 0.83713 -0.03900
C 	C 	0.22887 0.12990 0.88379 0.02500
C 	C 	0.25156 0.21481 0.88974 -0.05400
C 	C 	0.24943 0.08268 0.90213 -0.04000
H 	H 	0.27832 0.07535 0.79566 0.04700
H 	H 	0.23032 0.24954 0.87687 0.06300
C 	C 	0.30530 0.88707 0.33632 -0.03500
H 	H 	0.29687 0.98557 0.62132 0.06200
O 	O 	0.97020 0.94413 0.27984 -0.34800
C 	C 	0.98529 0.25859 0.40102 0.12300
O 	O 	0.01660 0.25029 0.26451 -0.35900
C 	C 	0.76934 0.38348 0.88218 0.29000
C 	C 	0.43888 0.26297 0.92937 0.31200
C 	C 	0.61110 0.46727 0.88116 0.31300
C 	C 	0.54512 0.14480 0.93747 0.32800
C 	C 	0.61442 0.48234 0.96883 0.33700
C 	C 	0.78761 0.42255 0.97211 0.32500
Ni	Ni	0.58635 0.29473 0.89665 1.11800
Ni	Ni	0.59569 0.30993 0.96252 1.13100
Ni	Ni	0.71933 0.47036 0.92529 1.12600
O 	O 	0.69954 0.30733 0.88308 -0.35400
O 	O 	0.76911 0.45486 0.88991 -0.35400
O 	O 	0.57357 0.40162 0.97655 -0.35300
O 	O 	0.48825 0.30982 0.91001 -0.37900
O 	O 	0.47006 0.24507 0.95097 -0.33900
O 	O 	0.80095 0.45208 0.94695 -0.36700
O 	O 	0.61619 0.40109 0.87219 -0.36100
O 	O 	0.63685 0.49543 0.90549 -0.37500
O 	O 	0.71100 0.36284 0.98148 -0.33500
O 	O 	0.53492 0.16795 0.91276 -0.35100
O 	O 	0.59950 0.20159 0.95421 -0.35600
O 	O 	0.69094 0.51548 0.95855 -0.36400
O 	O 	0.64465 0.35062 0.92796 -0.72000
H 	H 	0.68531 0.32933 0.92865 0.16800
C 	C 	0.85379 0.23316 0.51421 0.28800
C 	C 	0.64269 0.37002 0.46569 0.34000
C 	C 	0.89807 0.45150 0.49486 0.33700
C 	C 	0.58520 0.12513 0.48110 0.32100
C 	C 	0.69784 0.43164 0.54766 0.31300
C 	C 	0.62632 0.20883 0.56937 0.30300
Ni	Ni	0.75187 0.28913 0.47645 1.12000
Ni	Ni	0.60142 0.26881 0.51702 1.12600
Ni	Ni	0.78728 0.33673 0.53933 1.12700
O 	O 	0.84658 0.26102 0.48973 -0.34600
O 	O 	0.81519 0.24138 0.53575 -0.36500
O 	O 	0.62540 0.35913 0.54548 -0.37600
O 	O 	0.66854 0.31817 0.45601 -0.33700
O 	O 	0.61154 0.35927 0.49019 -0.36000
O 	O 	0.70388 0.27665 0.57042 -0.37100
O 	O 	0.83429 0.41995 0.47843 -0.35100
O 	O 	0.89413 0.40836 0.51689 -0.35800
O 	O 	0.58316 0.18501 0.54673 -0.36900
O 	O 	0.66311 0.16083 0.47114 -0.34700
O 	O 	0.55128 0.17328 0.48866 -0.34400
O 	O 	0.76783 0.43686 0.53859 -0.37400
O 	O 	0.70971 0.28065 0.51136 -0.72200
H 	H 	0.69493 0.22093 0.51553 0.16600
C 	C 	0.88867 0.85819 0.68889 0.31000
C 	C 	0.85518 0.90172 0.76198 0.29000
Ni	Ni	0.91754 0.01922 0.71434 1.12400
O 	O 	0.96416 0.05078 0.67672 -0.37000
O 	O 	0.96248 0.86873 0.69602 -0.35200
O 	O 	0.85340 0.89535 0.70229 -0.36900
O 	O 	0.95763 0.14329 0.72460 -0.34900
O 	O 	0.88934 0.85874 0.75045 -0.34900
O 	O 	0.85927 0.97116 0.75034 -0.35300
C 	C 	0.48414 0.79080 0.44214 0.32500
C 	C 	0.53112 0.59003 0.42879 0.31500
C 	C 	0.34210 0.73345 0.37790 0.29600
C 	C 	0.40087 0.58572 0.34683 0.30800
Ni	Ni	0.37668 0.59715 0.44886 1.12200
Ni	Ni	0.47658 0.69169 0.39305 1.12500
O 	O 	0.41452 0.73813 0.37063 -0.37400
O 	O 	0.46590 0.72371 0.45769 -0.33400
O 	O 	0.51142 0.79345 0.41750 -0.35000
O 	O 	0.32100 0.54401 0.35486 -0.37000
O 	O 	0.46226 0.60876 0.36415 -0.37400
O 	O 	0.47519 0.56945 0.44870 -0.34300
O 	O 	0.55558 0.66105 0.41390 -0.33900
O 	O 	0.38069 0.60457 0.41130 -0.71900
H 	H 	0.39577 0.55973 0.40799 0.15500
C 	C 	0.46699 0.67996 0.00671 0.33000
C 	C 	0.42441 0.86686 0.06934 0.29000
C 	C 	0.31918 0.82279 0.98606 0.31100
Ni	Ni	0.37590 0.68320 0.05985 1.12000
Ni	Ni	0.29432 0.64665 0.00015 1.13300
O 	O 	0.45771 0.66585 0.03331 -0.34600
O 	O 	0.41948 0.70348 0.99318 -0.34800
O 	O 	0.31241 0.69412 0.09356 -0.35700
O 	O 	0.28459 0.74034 0.97870 -0.33500
O 	O 	0.30753 0.84380 0.01071 -0.35400
O 	O 	0.45353 0.81377 0.06357 -0.35600
O 	O 	0.34203 0.84231 0.06797 -0.35200
O 	O 	0.32615 0.71329 0.03181 -0.71900
H 	H 	0.37556 0.76586 0.02500 0.17100
C 	C 	0.80443 0.03668 0.26044 0.28300
C 	C 	0.86313 0.02637 0.19668 0.30600
Ni	Ni	0.96899 0.17142 0.23117 1.12300
Ni	Ni	0.92117 0.97306 0.24667 1.12400
O 	O 	0.84329 0.10899 0.24580 -0.35400
O 	O 	0.84478 0.99785 0.27003 -0.37000
O 	O 	0.93481 0.09749 0.19715 -0.36900
O 	O 	0.84458 0.96648 0.21532 -0.36700
H 	H 	0.98485 0.10163 0.26625 0.15500
C 	C 	0.40040 0.44768 0.04702 0.09700
N 	N 	0.47080 0.48618 0.04079 -0.08600
N 	N 	0.98545 0.22088 0.08542 -0.08200
H 	H 	0.33688 0.33810 0.08863 0.06400
C 	C 	0.62998 0.01676 0.09491 -0.03600
C 	C 	0.60942 0.00186 0.12253 0.01900
C 	C 	0.52643 0.97448 0.13099 -0.04600
C 	C 	0.46235 0.94879 0.11193 0.02500
C 	C 	0.48078 0.94417 0.08461 -0.06200
C 	C 	0.56529 0.99070 0.07604 0.02200
C 	C 	0.67210 0.00672 0.14226 0.02300
C 	C 	0.72326 0.08442 0.15515 -0.05700
C 	C 	0.78509 0.09159 0.17313 0.03500
C 	C 	0.79687 0.01988 0.17815 -0.09000
C 	C 	0.74404 0.94140 0.16567 0.02500
C 	C 	0.68172 0.93443 0.14781 -0.03400
C 	C 	0.83446 0.17212 0.18681 0.06800
C 	C 	0.62805 0.85303 0.13517 0.10600
C 	C 	0.71632 0.05345 0.08575 0.10900
C 	C 	0.37909 0.92978 0.12037 0.09400
N 	N 	0.87392 0.23679 0.19769 -0.12100
N 	N 	0.58497 0.78788 0.12502 -0.10600
N 	N 	0.31262 0.91541 0.12726 -0.10700
N 	N 	0.78551 0.08278 0.07841 -0.09300
H 	H 	0.58031 0.99528 0.05473 0.06000
H 	H 	0.51141 0.97031 0.15229 0.05900
H 	H 	0.71501 0.13959 0.15110 0.06500
H 	H 	0.75183 0.88597 0.16970 0.05000
N 	N 	0.28595 0.08589 0.20681 -0.10000
N 	N 	0.93017 0.59268 0.19244 -0.10200
C 	C 	0.41699 0.72604 0.28903 -0.04000
C 	C 	0.50150 0.75503 0.28176 0.02600
C 	C 	0.53792 0.70407 0.28832 -0.05600
C 	C 	0.49756 0.63609 0.30679 0.03100
C 	C 	0.42154 0.62086 0.31917 -0.07800
C 	C 	0.37733 0.65951 0.30807 0.01700
C 	C 	0.55768 0.84629 0.27453 0.02300
C 	C 	0.59943 0.90480 0.29523 -0.05500
C 	C 	0.67740 0.97815 0.29011 0.03400
C 	C 	0.71248 0.99374 0.26399 -0.06700
C 	C 	0.66162 0.94581 0.24257 0.00800
C 	C 	0.58512 0.87064 0.24776 -0.03600
C 	C 	0.72357 0.03400 0.31199 0.08400
C 	C 	0.53738 0.81692 0.22570 0.09600
C 	C 	0.37051 0.76290 0.27664 0.09900
C 	C 	0.53555 0.58411 0.31359 0.09500
N 	N 	0.76063 0.07878 0.32951 -0.09100
N 	N 	0.49914 0.77392 0.20800 -0.10700
N 	N 	0.56596 0.54244 0.31905 -0.08500
N 	N 	0.33308 0.79208 0.26655 -0.10500
H 	H 	0.31524 0.64280 0.31578 0.04800
H 	H 	0.60064 0.72202 0.28091 0.06000
H 	H 	0.57529 0.88891 0.31570 0.06400
H 	H 	0.68529 0.96209 0.22213 0.04800
C 	C 	0.95104 0.09842 0.36041 0.12100
N 	N 	0.89597 0.03900 0.37079 -0.10100
N 	N 	0.34207 0.25416 0.43954 -0.08100
N 	N 	0.92407 0.25893 0.39515 -0.10200
H 	H 	0.95823 0.14577 0.30904 0.05500
C 	C 	0.32797 0.80620 0.37167 -0.06100
C 	C 	0.34553 0.84229 0.34567 0.02200
C 	C 	0.32722 0.92831 0.31017 0.10600
C 	C 	0.24342 0.05081 0.36539 0.09200
C 	C 	0.00664 0.81488 0.29118 0.06900
N 	N 	0.34475 0.96169 0.28926 -0.10200
N 	N 	0.95763 0.76505 0.27674 -0.09000
N 	N 	0.29212 0.09907 0.38025 -0.08900
H 	H 	0.38744 0.83244 0.33242 0.04800
C 	C 	0.54083 0.97320 0.49268 0.11400
C 	C 	0.52992 0.03222 0.47672 -0.10300
C 	C 	0.49087 0.00556 0.45184 0.10400
C 	C 	0.49048 0.93584 0.43900 0.10200
C 	C 	0.50046 0.87424 0.45455 -0.08600
C 	C 	0.52702 0.89432 0.48175 0.10300
Br	Br	0.55949 0.82370 0.50259 -0.13900
Br	Br	0.57685 0.00175 0.52926 -0.19300
Br	Br	0.50609 0.94383 0.40052 -0.18000
Br	Br	0.44597 0.06992 0.43402 -0.15400
C 	C 	0.98194 0.52073 0.48501 -0.08200
C 	C 	0.99246 0.55157 0.45819 0.11500
Br	Br	0.90701 0.56878 0.44123 -0.14100
C 	C 	0.67754 0.52218 0.45726 0.10900
C 	C 	0.63993 0.43643 0.44819 -0.09500
C 	C 	0.58334 0.41164 0.42648 0.10600
C 	C 	0.55386 0.46714 0.41731 0.10000
C 	C 	0.58414 0.54869 0.42896 -0.09200
C 	C 	0.65251 0.57916 0.44656 0.10700
Br	Br	0.70734 0.69755 0.45767 -0.14000
Br	Br	0.75411 0.55812 0.48684 -0.15700
Br	Br	0.46955 0.43041 0.38976 -0.18700
Br	Br	0.54432 0.30149 0.40993 -0.13900
C 	C 	0.03815 0.18621 0.58800 0.04300
C 	C 	0.01926 0.23028 0.60775 -0.08600
C 	C 	0.01325 0.18865 0.55971 -0.00800
C 	C 	0.94178 0.11686 0.54950 -0.01900
C 	C 	0.89641 0.12737 0.52853 0.01700
C 	C 	0.92002 0.21047 0.51888 -0.04100
C 	C 	0.00129 0.27743 0.52458 -0.01800
C 	C 	0.82209 0.05376 0.51844 0.09400
C 	C 	0.00251 0.25889 0.65504 0.05800
N 	N 	0.76263 0.99468 0.51029 -0.06900
N 	N 	0.98448 0.29407 0.67101 -0.07900
H 	H 	0.99632 0.27360 0.60178 0.08300
H 	H 	0.91791 0.05455 0.55922 0.06100
H 	H 	0.02348 0.34029 0.51541 0.06300
C 	C 	0.47508 0.17545 0.62562 -0.04100
C 	C 	0.45728 0.09403 0.63553 0.03200
C 	C 	0.50546 0.05722 0.62653 -0.06600
C 	C 	0.56743 0.09859 0.60648 0.03600
C 	C 	0.57904 0.17574 0.59474 -0.07400
C 	C 	0.53561 0.21566 0.60528 0.01600
C 	C 	0.38427 0.04470 0.65378 0.00900
C 	C 	0.30355 0.99829 0.64274 -0.04000
C 	C 	0.32089 0.03365 0.69787 -0.00200
C 	C 	0.39267 0.05744 0.68180 -0.02900
C 	C 	0.47495 0.09883 0.69395 0.09300
C 	C 	0.42975 0.21701 0.63575 0.09700
C 	C 	0.62118 0.06371 0.59898 0.09000
N 	N 	0.54093 0.13203 0.70366 -0.10700
N 	N 	0.66447 0.03587 0.59306 -0.09000
N 	N 	0.39340 0.25022 0.64388 -0.10900
H 	H 	0.54654 0.27647 0.59683 0.04300
H 	H 	0.49405 0.99613 0.63488 0.07200
H 	H 	0.32771 0.04838 0.71915 0.04800
C 	C 	0.64632 0.54348 0.60286 -0.03700
C 	C 	0.72317 0.62088 0.60486 0.02700
C 	C 	0.78576 0.64253 0.58525 -0.05200
C 	C 	0.77737 0.58380 0.56553 0.03400
C 	C 	0.70262 0.50229 0.56461 -0.07000
C 	C 	0.63575 0.48530 0.58246 0.01600
C 	C 	0.74425 0.67383 0.62924 0.02600
C 	C 	0.77160 0.64789 0.65198 -0.05500
C 	C 	0.81905 0.70754 0.67164 0.03300
C 	C 	0.83910 0.79412 0.66860 -0.07500
C 	C 	0.80524 0.81817 0.64714 0.01800
C 	C 	0.75711 0.75823 0.62765 -0.03600
C 	C 	0.84599 0.67918 0.69499 0.08300
C 	C 	0.72298 0.78422 0.60563 0.10400
C 	C 	0.57865 0.52266 0.62191 0.10000
C 	C 	0.84752 0.60695 0.54727 0.11200
N 	N 	0.86755 0.65648 0.71369 -0.10500
N 	N 	0.69565 0.80504 0.58798 -0.09100
N 	N 	0.90436 0.62619 0.53288 -0.07300
N 	N 	0.52444 0.50597 0.63719 -0.10400
H 	H 	0.57694 0.42516 0.58129 0.05100
H 	H 	0.84391 0.70349 0.58643 0.06900
H 	H 	0.75999 0.58233 0.65355 0.06100
H 	H 	0.81736 0.88390 0.64546 0.05000
C 	C 	0.96492 0.54772 0.01960 0.12500
C 	C 	0.88046 0.49450 0.01143 0.10000
C 	C 	0.86350 0.44412 0.98818 -0.09300
C 	C 	0.93001 0.43879 0.97564 0.12200
Br	Br	0.90579 0.34717 0.95095 -0.17400
Br	Br	0.78852 0.48793 0.03257 -0.14600
C 	C 	0.42373 0.04780 0.96754 0.09600
C 	C 	0.48404 0.05751 0.94797 -0.11000
C 	C 	0.48081 0.98275 0.93718 0.11400
C 	C 	0.41977 0.90025 0.94722 0.09600
C 	C 	0.35659 0.89330 0.96553 -0.08600
C 	C 	0.35165 0.96784 0.97068 0.10700
Br	Br	0.45334 0.12845 0.99640 -0.21100
Br	Br	0.42055 0.79882 0.93480 -0.15200
Br	Br	0.56234 0.99321 0.91042 -0.15900
C 	C 	0.63285 0.61898 0.99027 0.10600
C 	C 	0.58108 0.53953 0.97734 -0.09700
C 	C 	0.49569 0.51436 0.97279 0.10300
C 	C 	0.46952 0.57521 0.97484 0.10800
C 	C 	0.51409 0.64655 0.99143 -0.09600
C 	C 	0.59777 0.67078 0.99825 0.10900
Br	Br	0.66436 0.77543 0.01776 -0.15800
Br	Br	0.74722 0.65235 0.99991 -0.13700
Br	Br	0.37416 0.56091 0.95437 -0.19100
Br	Br	0.41031 0.39517 0.97399 -0.17300
C 	C 	0.95541 0.32410 0.80383 0.03900
C 	C 	0.88894 0.25509 0.79080 -0.05100
C 	C 	0.90497 0.20999 0.77090 0.01700
C 	C 	0.98933 0.23472 0.76363 -0.02600
C 	C 	0.93600 0.36359 0.82679 0.02400
C 	C 	0.90917 0.42354 0.82169 -0.04900
C 	C 	0.86060 0.43743 0.84084 0.02700
C 	C 	0.84010 0.39186 0.86558 -0.06000
C 	C 	0.87665 0.34093 0.87193 0.01500
C 	C 	0.92513 0.32721 0.85273 -0.02800
C 	C 	0.82707 0.49358 0.83417 0.09700
C 	C 	0.95918 0.27141 0.85920 0.11300
C 	C 	0.83429 0.13792 0.75846 0.09100
N 	N 	0.80020 0.53852 0.82883 -0.10100
N 	N 	0.77724 0.08049 0.74855 -0.11100
H 	H 	0.82438 0.23508 0.79671 0.06200
H 	H 	0.92029 0.45403 0.80201 0.06300
H 	H 	0.86245 0.30724 0.89111 0.06800
C 	C 	0.31246 0.25923 0.90920 0.03300
C 	C 	0.34762 0.21611 0.92386 -0.06500
C 	C 	0.30724 0.12600 0.92268 0.01800
C 	C 	0.35113 0.35178 0.90964 0.10500
C 	C 	0.34085 0.11303 0.84523 0.09800
N 	N 	0.38227 0.42595 0.90951 -0.08400
N 	N 	0.96590 0.07382 0.80411 -0.09300
N 	N 	0.40713 0.12661 0.85175 -0.11800
H 	H 	0.32927 0.09138 0.93509 0.06100
C 	C 	0.58461 0.65139 0.85788 -0.03500
C 	C 	0.60661 0.65348 0.83060 0.02600
C 	C 	0.59510 0.57751 0.81872 -0.05400
C 	C 	0.58397 0.50825 0.83493 0.03100
C 	C 	0.58370 0.51567 0.86326 -0.07500
C 	C 	0.57317 0.58227 0.87421 0.01800
C 	C 	0.66777 0.73602 0.81795 0.02700
C 	C 	0.75287 0.77114 0.82460 -0.05100
C 	C 	0.81569 0.82954 0.80723 0.02900
C 	C 	0.79325 0.85850 0.78382 -0.06500
C 	C 	0.70798 0.83255 0.77929 0.01600
C 	C 	0.64500 0.77014 0.79599 -0.03600
C 	C 	0.90232 0.85398 0.81265 0.08600
C 	C 	0.55741 0.73984 0.79006 0.10300
C 	C 	0.58051 0.72299 0.86959 0.11200
C 	C 	0.57033 0.42983 0.82237 0.09000
N 	N 	0.97120 0.87221 0.81737 -0.08900
N 	N 	0.48718 0.71551 0.78533 -0.10300
N 	N 	0.55937 0.36703 0.81224 -0.10400
N 	N 	0.57722 0.78040 0.87898 -0.08300
H 	H 	0.56269 0.58358 0.89567 0.06400
H 	H 	0.60386 0.57587 0.79716 0.06200
H 	H 	0.77020 0.74669 0.84207 0.06500
H 	H 	0.69046 0.85637 0.76173 0.05300
