data_crystal

_cell_length_a 36.90282
_cell_length_b 34.95589
_cell_length_c 13.25779
_cell_angle_alpha 88.87252
_cell_angle_beta  89.99936
_cell_angle_gamma 130.27399

_symmetry_space_group_name_	'P 1'
_symmetry_space_group_name_H-M	'P 1'

loop_
_symmetry_equiv_pos_as_xyz
  x,y,z

loop_
_atom_site_label
_atom_site_type_symbol
_atom_site_fract_x
_atom_site_fract_y
_atom_site_fract_z
_atom_site_charge
H 	H 	0.95391 0.13207 0.12054 0.08200
H 	H 	0.02230 0.73775 0.23644 0.08900
C 	C 	0.01149 0.28741 0.96906 -0.03800
C 	C 	0.03222 0.81026 0.91757 -0.02800
H 	H 	0.02932 0.32199 0.92536 0.02900
H 	H 	0.04080 0.82773 0.84310 0.03700
C 	C 	0.00790 0.21933 0.03056 -0.05900
C 	C 	0.00103 0.18690 0.53196 -0.12100
C 	C 	0.98296 0.17027 0.43393 0.12700
C 	C 	0.05476 0.78940 0.06692 -0.06100
C 	C 	0.05319 0.78202 0.49436 -0.12900
C 	C 	0.04082 0.81012 0.45415 0.12800
C 	C 	0.03138 0.26430 0.97549 -0.05000
C 	C 	0.06612 0.81219 0.97098 -0.05300
H 	H 	0.02307 0.20116 0.03373 0.05400
H 	H 	0.08076 0.79009 0.10716 0.05200
O 	O 	0.05313 0.26481 0.61886 -0.39200
C 	C 	0.04843 0.23650 0.54652 0.31700
N 	N 	0.01036 0.17453 0.35857 -0.19900
H 	H 	0.99795 0.16563 0.28482 0.08400
O 	O 	0.10225 0.80177 0.63718 -0.40800
C 	C 	0.09989 0.80719 0.53968 0.32700
N 	N 	0.07428 0.86039 0.43549 -0.20500
H 	H 	0.06446 0.88070 0.40786 0.08300
C 	C 	0.07505 0.28513 0.91875 0.28900
O 	O 	0.07080 0.27189 0.82445 -0.43600
C 	C 	0.11284 0.83614 0.92490 0.30400
O 	O 	0.11485 0.81785 0.84142 -0.43300
O 	O 	0.08148 0.25616 0.47559 -0.46100
H 	H 	0.04203 0.18187 0.37439 0.09200
H 	H 	0.11340 0.14738 0.93267 0.08100
O 	O 	0.13864 0.83496 0.48260 -0.47100
H 	H 	0.11020 0.87977 0.44684 0.09700
H 	H 	0.23837 0.72734 0.74789 0.08900
H 	H 	0.12480 0.18935 0.83267 0.09100
H 	H 	0.21302 0.75710 0.74601 0.08400
Zn	Zn	0.11365 0.31621 0.71181 1.22400
O 	O 	0.11289 0.30070 0.97029 -0.45100
N 	N 	0.13767 0.18084 0.89123 -0.20200
Zn	Zn	0.15993 0.85799 0.72772 1.22100
O 	O 	0.15111 0.86717 0.97900 -0.46400
N 	N 	0.22778 0.74444 0.78700 -0.20100
H 	H 	0.14596 0.27707 0.65381 0.16600
O 	O 	0.11358 0.36957 0.66721 -0.44200
O 	O 	0.12202 0.36062 0.50090 -0.39300
H 	H 	0.12710 0.42559 0.39120 0.04500
H 	H 	0.18568 0.81008 0.68442 0.17400
O 	O 	0.15899 0.90862 0.66150 -0.43900
O 	O 	0.21996 0.93463 0.55416 -0.41200
H 	H 	0.18650 0.96242 0.39615 0.03100
C 	C 	0.12631 0.38808 0.57450 0.28800
O 	O 	0.15622 0.31078 0.64006 -0.78400
O 	O 	0.16903 0.28066 0.86187 -0.42100
C 	C 	0.14242 0.45268 0.45057 -0.03400
H 	H 	0.17696 0.15596 0.01062 0.05200
C 	C 	0.18974 0.93929 0.58958 0.28600
O 	O 	0.20068 0.84568 0.67296 -0.77500
O 	O 	0.19186 0.81972 0.91829 -0.42000
C 	C 	0.19373 0.98984 0.44885 -0.03100
H 	H 	0.25317 0.70365 0.90304 0.04600
Zn	Zn	0.14696 0.31796 0.49481 1.20100
C 	C 	0.14102 0.43804 0.55094 -0.04200
C 	C 	0.18507 0.20967 0.90692 0.12400
Zn	Zn	0.20337 0.86373 0.52626 1.19800
C 	C 	0.19288 0.98133 0.55292 -0.04300
C 	C 	0.23045 0.74706 0.88926 0.12900
Zn	Zn	0.18041 0.34575 0.91877 1.19400
C 	C 	0.20372 0.28533 0.81704 0.31500
C 	C 	0.16599 0.50296 0.42556 0.01900
H 	H 	0.16955 0.51423 0.34702 0.01200
C 	C 	0.20193 0.19105 0.96860 -0.07200
Zn	Zn	0.21719 0.89512 0.94446 1.19200
C 	C 	0.22134 0.81242 0.89070 0.31600
C 	C 	0.20701 0.03510 0.41204 0.01300
H 	H 	0.20987 0.04210 0.33130 0.00900
C 	C 	0.24350 0.72266 0.94342 -0.07400
O 	O 	0.17790 0.37034 0.78551 -0.79200
O 	O 	0.22462 0.91429 0.79933 -0.79100
C 	C 	0.15882 0.47318 0.62739 -0.07300
C 	C 	0.21811 0.25705 0.85720 -0.12300
C 	C 	0.20152 0.01669 0.62043 -0.07200
C 	C 	0.21917 0.77312 0.94229 -0.12600
O 	O 	0.23158 0.32192 0.75016 -0.44000
H 	H 	0.18843 0.40454 0.78715 0.17000
H 	H 	0.15616 0.46177 0.70555 0.04600
H 	H 	0.19186 0.30563 0.38811 -0.04000
O 	O 	0.25780 0.84521 0.83047 -0.43500
H 	H 	0.23946 0.94973 0.78601 0.17700
H 	H 	0.19938 0.00945 0.70105 0.04000
H 	H 	0.21845 0.80768 0.51839 -0.05600
Zn	Zn	0.22230 0.36935 0.70659 1.22300
O 	O 	0.21009 0.38243 0.45755 -0.44000
C 	C 	0.18876 0.53924 0.50029 -0.12600
C 	C 	0.18196 0.52365 0.60289 0.12800
Zn	Zn	0.26449 0.89853 0.75394 1.22300
O 	O 	0.27221 0.90564 0.49518 -0.43400
C 	C 	0.22144 0.07320 0.47861 -0.12500
C 	C 	0.21539 0.06264 0.58395 0.12600
O 	O 	0.24758 0.37737 0.93698 -0.46700
O 	O 	0.23855 0.13785 0.36386 -0.44000
O 	O 	0.25002 0.18401 0.13566 -0.44200
C 	C 	0.25084 0.21685 0.97358 -0.05000
H 	H 	0.20565 0.24737 0.35340 0.03300
O 	O 	0.27798 0.91437 0.98845 -0.46900
O 	O 	0.21981 0.61506 0.40572 -0.44000
O 	O 	0.24075 0.68005 0.19933 -0.44000
C 	C 	0.24305 0.72186 0.04936 -0.04100
H 	H 	0.21290 0.73479 0.49452 0.03200
C 	C 	0.24646 0.39012 0.49916 0.28400
C 	C 	0.26866 0.19941 0.04394 0.28700
C 	C 	0.25252 0.12545 0.43977 0.31500
N 	N 	0.19763 0.55692 0.67777 -0.20300
C 	C 	0.26668 0.28068 0.85736 0.01800
C 	C 	0.22376 0.31383 0.41579 -0.02900
C 	C 	0.23175 0.28084 0.39534 0.00700
C 	C 	0.29745 0.90264 0.55885 0.29300
C 	C 	0.25730 0.69672 0.10647 0.28600
C 	C 	0.22766 0.59205 0.47024 0.31600
N 	N 	0.22285 0.09633 0.64989 -0.20300
C 	C 	0.21572 0.76918 0.04799 0.02600
C 	C 	0.24937 0.81117 0.53174 -0.01100
C 	C 	0.24621 0.76973 0.51815 0.00200
O 	O 	0.26017 0.41127 0.58744 -0.42200
H 	H 	0.28215 0.11367 0.23311 0.17100
H 	H 	0.19424 0.54571 0.75327 0.07100
C 	C 	0.28281 0.26058 0.91472 -0.03300
H 	H 	0.29233 0.31607 0.81693 0.03900
O 	O 	0.31080 0.92788 0.64235 -0.42100
H 	H 	0.24738 0.58458 0.24686 0.17300
H 	H 	0.22003 0.08917 0.72765 0.07300
C 	C 	0.22779 0.74401 0.10112 -0.03600
H 	H 	0.20651 0.78833 0.08943 0.02500
O 	O 	0.28114 0.42684 0.79524 -0.39800
C 	C 	0.28174 0.42097 0.89355 0.31100
Zn	Zn	0.28306 0.18924 0.25910 1.22200
Zn	Zn	0.31820 0.15786 0.06508 1.19300
O 	O 	0.30362 0.14939 0.21101 -0.80900
O 	O 	0.30500 0.20269 0.01645 -0.45800
H 	H 	0.21150 0.59361 0.66189 0.08800
C 	C 	0.25642 0.35676 0.47243 -0.10200
O 	O 	0.32253 0.95508 0.84647 -0.39400
C 	C 	0.31817 0.95275 0.94549 0.30800
Zn	Zn	0.26907 0.66848 0.30942 1.22200
Zn	Zn	0.29087 0.63824 0.09054 1.19200
O 	O 	0.27455 0.62071 0.23507 -0.80800
O 	O 	0.28776 0.69331 0.06545 -0.45200
H 	H 	0.22967 0.12894 0.62442 0.09200
C 	C 	0.29264 0.85739 0.55810 -0.10200
O 	O 	0.34348 0.12290 0.05126 -0.46600
O 	O 	0.27328 0.23974 0.30870 -0.40300
H 	H 	0.32054 0.28033 0.91686 0.04300
C 	C 	0.27325 0.29090 0.42787 -0.11900
O 	O 	0.30615 0.59571 0.05091 -0.46400
O 	O 	0.27472 0.72510 0.38596 -0.40500
H 	H 	0.22667 0.74312 0.18285 0.05200
C 	C 	0.28656 0.77411 0.52678 -0.11800
O 	O 	0.29637 0.15723 0.47212 -0.41300
C 	C 	0.28130 0.25614 0.40113 0.31200
H 	H 	0.28744 0.42369 0.09983 0.02700
O 	O 	0.27091 0.61391 0.50075 -0.41500
C 	C 	0.28570 0.73551 0.48141 0.31400
H 	H 	0.32271 0.96059 0.15158 0.03100
O 	O 	0.29372 0.23946 0.47072 -0.46200
C 	C 	0.30314 0.45924 0.06218 0.01200
C 	C 	0.31247 0.46549 0.95757 -0.14300
H 	H 	0.29553 0.48892 0.19309 0.04900
C 	C 	0.29796 0.36707 0.50591 -0.05200
O 	O 	0.29195 0.70896 0.53782 -0.46700
C 	C 	0.34297 0.99590 0.10946 0.01000
C 	C 	0.35286 0.99791 0.00601 -0.12600
H 	H 	0.33918 0.03366 0.22970 0.04300
C 	C 	0.33202 0.86090 0.57716 -0.04400
O 	O 	0.37068 0.13145 0.21424 -0.39400
C 	C 	0.36337 0.11441 0.12122 0.28700
C 	C 	0.30760 0.49617 0.11515 -0.04500
C 	C 	0.30760 0.33544 0.48109 0.11000
O 	O 	0.32087 0.57942 0.20938 -0.39700
C 	C 	0.31657 0.57314 0.11039 0.28300
C 	C 	0.35251 0.03744 0.15414 -0.04100
C 	C 	0.32968 0.81971 0.56054 0.10700
Zn	Zn	0.36522 0.18540 0.26960 1.22500
O 	O 	0.35079 0.23433 0.29624 -0.78300
C 	C 	0.32364 0.54040 0.06479 -0.04400
C 	C 	0.33951 0.51435 0.91439 0.13000
H 	H 	0.32359 0.40055 0.54835 0.05100
Zn	Zn	0.33219 0.63888 0.28949 1.22400
O 	O 	0.33493 0.69801 0.34039 -0.78700
C 	C 	0.37364 0.08147 0.09652 -0.04900
C 	C 	0.38540 0.04566 0.95808 0.11600
H 	H 	0.36508 0.89623 0.60042 0.04900
Zn	Zn	0.34569 0.23794 0.44563 1.19500
O 	O 	0.37707 0.17361 0.40505 -0.43600
O 	O 	0.39284 0.22706 0.04743 -0.40800
C 	C 	0.34290 0.55105 0.96674 -0.08100
H 	H 	0.36789 0.50232 0.79468 0.10200
Zn	Zn	0.33205 0.69352 0.49075 1.19500
O 	O 	0.33504 0.60978 0.41404 -0.43100
O 	O 	0.36821 0.70094 0.08878 -0.41200
C 	C 	0.39399 0.08707 0.00202 -0.06600
H 	H 	0.41002 0.02403 0.84989 0.10400
H 	H 	0.37018 0.26691 0.25875 0.17500
H 	H 	0.36019 0.58751 0.93135 0.05600
N 	N 	0.36401 0.52666 0.82630 -0.20200
H 	H 	0.38235 0.56222 0.79268 0.08600
N 	N 	0.35049 0.34922 0.50429 -0.19600
H 	H 	0.36204 0.33149 0.47318 0.04000
H 	H 	0.35928 0.73197 0.31009 0.17900
H 	H 	0.41450 0.12274 0.96102 0.05200
N 	N 	0.40982 0.05222 0.87358 -0.20100
H 	H 	0.43184 0.08700 0.83544 0.08800
N 	N 	0.36905 0.82464 0.57431 -0.19700
H 	H 	0.36871 0.79498 0.56289 0.04800
H 	H 	0.44299 0.16635 0.50645 0.04600
H 	H 	0.39705 0.62820 0.66051 0.03900
C 	C 	0.40761 0.21250 0.46099 0.30100
C 	C 	0.42853 0.24035 0.10365 0.32500
H 	H 	0.37421 0.38035 0.54883 0.07700
C 	C 	0.36773 0.63837 0.48159 0.30600
C 	C 	0.39990 0.69987 0.13053 0.32300
H 	H 	0.40071 0.85861 0.59777 0.08000
O 	O 	0.39641 0.23818 0.49957 -0.44900
O 	O 	0.42458 0.23937 0.20145 -0.45500
O 	O 	0.37194 0.67514 0.52240 -0.45400
O 	O 	0.39499 0.68638 0.22538 -0.45100
H 	H 	0.46226 0.28700 0.91985 0.03500
C 	C 	0.47018 0.20624 0.49082 -0.02600
H 	H 	0.45413 0.78494 0.01522 0.03200
C 	C 	0.42073 0.63931 0.59688 -0.02300
C 	C 	0.45754 0.23468 0.46016 -0.06200
C 	C 	0.40526 0.63576 0.49829 -0.05100
H 	H 	0.46093 0.20173 0.20775 0.10000
H 	H 	0.40793 0.63218 0.16064 0.09800
C 	C 	0.48741 0.28657 0.96071 0.01200
C 	C 	0.47528 0.26282 0.05648 -0.12200
H 	H 	0.52698 0.20778 0.53623 0.02800
C 	C 	0.46857 0.76609 0.01927 0.02000
C 	C 	0.44456 0.72086 0.07518 -0.12500
H 	H 	0.48143 0.67206 0.69039 0.03400
C 	C 	0.51781 0.22976 0.50754 0.01700
C 	C 	0.46864 0.66438 0.61373 0.01600
C 	C 	0.50877 0.26205 0.10771 0.12500
N 	N 	0.49625 0.23291 0.19207 -0.20100
C 	C 	0.49296 0.28583 0.43636 -0.06200
H 	H 	0.48311 0.30722 0.40755 0.03900
C 	C 	0.46406 0.69647 0.07850 0.12400
N 	N 	0.44016 0.65043 0.12331 -0.20600
C 	C 	0.43498 0.64609 0.41702 -0.07100
H 	H 	0.42170 0.63828 0.34089 0.05300
C 	C 	0.96857 0.26609 0.01927 0.01700
C 	C 	0.94456 0.22086 0.07518 -0.12400
C 	C 	0.96406 0.19647 0.07850 0.12000
H 	H 	0.95413 0.28494 0.01522 0.03200
N 	N 	0.94016 0.15043 0.12331 -0.20500
H 	H 	0.90793 0.13218 0.16064 0.09800
C 	C 	0.90526 0.13576 0.49829 -0.05300
C 	C 	0.92072 0.13931 0.59688 -0.02100
C 	C 	0.96864 0.16438 0.61373 0.01100
C 	C 	0.93498 0.14609 0.41702 -0.06900
H 	H 	0.98143 0.17206 0.69039 0.03400
H 	H 	0.92170 0.13828 0.34089 0.05200
H 	H 	0.89705 0.12820 0.66051 0.03800
C 	C 	0.98741 0.78657 0.96071 0.01000
C 	C 	0.97528 0.76282 0.05648 -0.12300
C 	C 	0.00877 0.76205 0.10771 0.12700
H 	H 	0.96226 0.78700 0.91985 0.03500
N 	N 	0.99624 0.73291 0.19207 -0.20300
H 	H 	0.96093 0.70173 0.20775 0.10000
C 	C 	0.95754 0.73468 0.46016 -0.06100
C 	C 	0.97018 0.70624 0.49082 -0.02800
C 	C 	0.01781 0.72976 0.50754 0.02000
C 	C 	0.99296 0.78583 0.43636 -0.06500
H 	H 	0.02698 0.70778 0.53623 0.02800
H 	H 	0.98311 0.80722 0.40755 0.04000
H 	H 	0.94299 0.66635 0.50645 0.04700
Zn	Zn	0.76449 0.39853 0.75394 1.22300
Zn	Zn	0.70337 0.36373 0.52626 1.19700
C 	C 	0.61284 0.33614 0.92490 0.30400
Zn	Zn	0.65993 0.35799 0.72772 1.22100
Zn	Zn	0.71719 0.39512 0.94446 1.19200
H 	H 	0.68568 0.31008 0.68442 0.17400
C 	C 	0.68974 0.43929 0.58958 0.28700
O 	O 	0.77798 0.41436 0.98845 -0.46900
O 	O 	0.82253 0.45508 0.84647 -0.39600
O 	O 	0.70068 0.34568 0.67296 -0.77500
O 	O 	0.77221 0.40564 0.49518 -0.43500
O 	O 	0.75780 0.34521 0.83047 -0.43600
O 	O 	0.81080 0.42788 0.64235 -0.42100
O 	O 	0.69185 0.31972 0.91829 -0.42000
O 	O 	0.63864 0.33496 0.48260 -0.47100
H 	H 	0.73946 0.44973 0.78601 0.17600
O 	O 	0.60225 0.30177 0.63718 -0.40900
O 	O 	0.72462 0.41429 0.79933 -0.79200
O 	O 	0.65111 0.36717 0.97900 -0.46500
O 	O 	0.65899 0.40862 0.66150 -0.44000
O 	O 	0.61485 0.31785 0.84142 -0.43400
O 	O 	0.71996 0.43463 0.55416 -0.41300
C 	C 	0.81817 0.45275 0.94549 0.30800
C 	C 	0.79745 0.40264 0.55885 0.29200
C 	C 	0.72134 0.31242 0.89070 0.31600
C 	C 	0.59989 0.30719 0.53968 0.32600
Zn	Zn	0.83219 0.13888 0.28949 1.22400
Zn	Zn	0.83206 0.19353 0.49075 1.19500
C 	C 	0.75730 0.19672 0.10647 0.28600
Zn	Zn	0.76907 0.16848 0.30942 1.22200
Zn	Zn	0.79087 0.13824 0.09054 1.19200
H 	H 	0.85928 0.23197 0.31009 0.17900
C 	C 	0.72766 0.09206 0.47024 0.31500
O 	O 	0.80615 0.09571 0.05091 -0.46400
O 	O 	0.82087 0.07942 0.20938 -0.39800
O 	O 	0.83493 0.19801 0.34039 -0.78700
O 	O 	0.87194 0.17514 0.52240 -0.45500
O 	O 	0.89499 0.18638 0.22538 -0.45200
O 	O 	0.83504 0.10978 0.41404 -0.43200
O 	O 	0.86821 0.20094 0.08878 -0.41200
O 	O 	0.79195 0.20896 0.53782 -0.46800
H 	H 	0.74738 0.08458 0.24686 0.17300
O 	O 	0.77472 0.22510 0.38596 -0.40600
O 	O 	0.77455 0.12071 0.23507 -0.80800
O 	O 	0.78776 0.19330 0.06545 -0.45300
O 	O 	0.71981 0.11506 0.40572 -0.44000
O 	O 	0.74075 0.18005 0.19933 -0.44000
O 	O 	0.77091 0.11391 0.50075 -0.41500
C 	C 	0.81657 0.07314 0.11039 0.28500
C 	C 	0.86773 0.13837 0.48159 0.30700
C 	C 	0.89990 0.19987 0.13053 0.32200
C 	C 	0.78570 0.23551 0.48141 0.31400
C 	C 	0.56612 0.31219 0.97098 -0.05400
C 	C 	0.53222 0.31026 0.91757 -0.03000
C 	C 	0.55476 0.28940 0.06692 -0.06000
H 	H 	0.58076 0.29009 0.10716 0.05200
H 	H 	0.54080 0.32773 0.84310 0.03700
H 	H 	0.52230 0.23775 0.23644 0.08900
C 	C 	0.55319 0.28202 0.49436 -0.12800
C 	C 	0.54082 0.31012 0.45415 0.12600
N 	N 	0.57428 0.36039 0.43549 -0.20400
H 	H 	0.61020 0.37977 0.44684 0.09700
H 	H 	0.56445 0.38071 0.40786 0.08200
C 	C 	0.69288 0.48133 0.55292 -0.04600
C 	C 	0.69373 0.48984 0.44885 -0.03400
C 	C 	0.70701 0.53510 0.41204 0.01700
C 	C 	0.72144 0.57320 0.47861 -0.12500
C 	C 	0.71540 0.56264 0.58395 0.12600
C 	C 	0.70152 0.51669 0.62043 -0.06800
H 	H 	0.70987 0.54210 0.33130 0.00900
H 	H 	0.69938 0.50945 0.70105 0.04000
H 	H 	0.68650 0.46242 0.39615 0.03100
N 	N 	0.72285 0.59633 0.64989 -0.20300
H 	H 	0.72967 0.62894 0.62442 0.09200
H 	H 	0.72003 0.58917 0.72765 0.07300
C 	C 	0.87364 0.58147 0.09652 -0.05000
C 	C 	0.85251 0.53744 0.15414 -0.03700
C 	C 	0.84297 0.49590 0.10946 0.00700
C 	C 	0.85286 0.49791 0.00601 -0.12800
C 	C 	0.88540 0.54566 0.95808 0.11900
C 	C 	0.89399 0.58707 0.00202 -0.06500
H 	H 	0.82271 0.46059 0.15158 0.03100
H 	H 	0.91450 0.62274 0.96102 0.05200
H 	H 	0.83918 0.53366 0.22970 0.04300
N 	N 	0.90983 0.55222 0.87358 -0.20100
H 	H 	0.91002 0.52403 0.84989 0.10500
H 	H 	0.93184 0.58700 0.83544 0.08800
C 	C 	0.74305 0.22186 0.04936 -0.04100
C 	C 	0.72779 0.24401 0.10112 -0.03700
C 	C 	0.71572 0.26918 0.04799 0.02700
C 	C 	0.71917 0.27312 0.94229 -0.12600
C 	C 	0.73045 0.24706 0.88926 0.12900
C 	C 	0.74350 0.22266 0.94342 -0.07400
H 	H 	0.70651 0.28833 0.08943 0.02400
H 	H 	0.75317 0.20365 0.90304 0.04600
H 	H 	0.72667 0.24312 0.18285 0.05200
N 	N 	0.72778 0.24444 0.78700 -0.20200
H 	H 	0.71302 0.25710 0.74601 0.08400
H 	H 	0.73837 0.22734 0.74789 0.08900
C 	C 	0.79264 0.35739 0.55810 -0.10300
C 	C 	0.74937 0.31117 0.53174 -0.01100
C 	C 	0.74621 0.26973 0.51815 0.00200
C 	C 	0.78656 0.27411 0.52678 -0.11800
C 	C 	0.82968 0.31970 0.56054 0.10600
C 	C 	0.83202 0.36090 0.57716 -0.04400
H 	H 	0.71290 0.23479 0.49452 0.03100
H 	H 	0.86508 0.39623 0.60042 0.04900
H 	H 	0.71845 0.30768 0.51839 -0.05600
N 	N 	0.86905 0.32464 0.57431 -0.19700
H 	H 	0.86871 0.29498 0.56289 0.04800
H 	H 	0.90071 0.35861 0.59777 0.07900
Zn	Zn	0.72230 0.86935 0.70659 1.22300
Zn	Zn	0.64697 0.81796 0.49481 1.20100
C 	C 	0.57505 0.78513 0.91875 0.28900
Zn	Zn	0.61365 0.81621 0.71181 1.22400
Zn	Zn	0.68041 0.84575 0.91877 1.19400
H 	H 	0.64596 0.77707 0.65381 0.16600
C 	C 	0.62631 0.88808 0.57450 0.28900
O 	O 	0.74758 0.87737 0.93698 -0.46700
O 	O 	0.78114 0.92684 0.79524 -0.39600
O 	O 	0.65622 0.81078 0.64006 -0.78400
O 	O 	0.71009 0.88243 0.45755 -0.44000
O 	O 	0.73158 0.82192 0.75016 -0.44000
O 	O 	0.76017 0.91127 0.58744 -0.42200
O 	O 	0.66903 0.78066 0.86187 -0.42100
O 	O 	0.58147 0.75616 0.47559 -0.46100
H 	H 	0.68843 0.90454 0.78715 0.17000
O 	O 	0.55313 0.76481 0.61886 -0.39300
O 	O 	0.67790 0.87035 0.78551 -0.79200
O 	O 	0.61289 0.80070 0.97029 -0.45100
O 	O 	0.61358 0.86957 0.66721 -0.44300
O 	O 	0.57080 0.77189 0.82445 -0.43600
O 	O 	0.62202 0.86062 0.50090 -0.39300
C 	C 	0.78174 0.92097 0.89355 0.31000
C 	C 	0.74646 0.89012 0.49916 0.28400
C 	C 	0.70372 0.78533 0.81704 0.31500
C 	C 	0.54843 0.73650 0.54652 0.31900
Zn	Zn	0.86522 0.68540 0.26960 1.22500
Zn	Zn	0.84569 0.73794 0.44563 1.19500
C 	C 	0.76866 0.69941 0.04394 0.28800
Zn	Zn	0.78306 0.68924 0.25910 1.22200
Zn	Zn	0.81820 0.65786 0.06508 1.19300
H 	H 	0.87018 0.76691 0.25875 0.17600
C 	C 	0.75252 0.62545 0.43977 0.31500
O 	O 	0.84348 0.62290 0.05126 -0.46600
O 	O 	0.87068 0.63145 0.21424 -0.39400
O 	O 	0.85079 0.73433 0.29624 -0.78300
O 	O 	0.89641 0.73818 0.49957 -0.44800
O 	O 	0.92458 0.73937 0.20145 -0.45500
O 	O 	0.87707 0.67361 0.40505 -0.43600
O 	O 	0.89284 0.72706 0.04743 -0.40800
O 	O 	0.79372 0.73946 0.47072 -0.46200
H 	H 	0.78215 0.61367 0.23311 0.17100
O 	O 	0.77328 0.73974 0.30870 -0.40300
O 	O 	0.80362 0.64939 0.21101 -0.80900
O 	O 	0.80500 0.70269 0.01645 -0.45700
O 	O 	0.73855 0.63785 0.36386 -0.44000
O 	O 	0.75002 0.68401 0.13566 -0.44100
O 	O 	0.79637 0.65723 0.47212 -0.41300
C 	C 	0.86338 0.61441 0.12122 0.28800
C 	C 	0.90761 0.71250 0.46099 0.30000
C 	C 	0.92853 0.74035 0.10365 0.32500
C 	C 	0.78130 0.75613 0.40113 0.31200
C 	C 	0.53138 0.76430 0.97549 -0.04800
C 	C 	0.51149 0.78741 0.96906 -0.04000
C 	C 	0.50790 0.71933 0.03056 -0.06200
H 	H 	0.52307 0.70116 0.03373 0.05400
H 	H 	0.52932 0.82199 0.92536 0.03000
H 	H 	0.45391 0.63207 0.12054 0.08400
C 	C 	0.50103 0.68690 0.53196 -0.12800
C 	C 	0.48296 0.67027 0.43393 0.13300
N 	N 	0.51036 0.67453 0.35857 -0.20200
H 	H 	0.54204 0.68187 0.37439 0.09200
H 	H 	0.49795 0.66563 0.28482 0.08600
C 	C 	0.64102 0.93804 0.55094 -0.04600
C 	C 	0.64242 0.95268 0.45057 -0.02700
C 	C 	0.66599 0.00296 0.42556 0.01200
C 	C 	0.68876 0.03924 0.50029 -0.12300
C 	C 	0.68196 0.02365 0.60289 0.12200
C 	C 	0.65882 0.97318 0.62739 -0.06600
H 	H 	0.66955 0.01423 0.34702 0.01300
H 	H 	0.65616 0.96177 0.70555 0.04500
H 	H 	0.62710 0.92559 0.39120 0.04400
N 	N 	0.69763 0.05692 0.67777 -0.20200
H 	H 	0.71150 0.09361 0.66189 0.08800
H 	H 	0.69424 0.04571 0.75327 0.07000
C 	C 	0.82364 0.04040 0.06479 -0.05000
C 	C 	0.80760 0.99617 0.11515 -0.03800
C 	C 	0.80314 0.95924 0.06218 0.00900
C 	C 	0.81247 0.96549 0.95757 -0.13700
C 	C 	0.83951 0.01435 0.91439 0.12400
C 	C 	0.84290 0.05105 0.96674 -0.07700
H 	H 	0.78744 0.92369 0.09983 0.02800
H 	H 	0.86019 0.08751 0.93135 0.05500
H 	H 	0.79553 0.98892 0.19309 0.04800
N 	N 	0.86401 0.02666 0.82630 -0.20200
H 	H 	0.86789 0.00232 0.79468 0.10100
H 	H 	0.88235 0.06222 0.79268 0.08500
C 	C 	0.75084 0.71685 0.97358 -0.05100
C 	C 	0.78281 0.76058 0.91472 -0.03300
C 	C 	0.76668 0.78068 0.85736 0.01800
C 	C 	0.71811 0.75705 0.85720 -0.12300
C 	C 	0.68507 0.70967 0.90692 0.12400
C 	C 	0.70193 0.69105 0.96860 -0.07200
H 	H 	0.79233 0.81607 0.81693 0.03900
H 	H 	0.67696 0.65596 0.01062 0.05200
H 	H 	0.82055 0.78033 0.91686 0.04300
N 	N 	0.63767 0.68084 0.89123 -0.20200
H 	H 	0.62480 0.68935 0.83267 0.09100
H 	H 	0.61340 0.64738 0.93267 0.08100
C 	C 	0.75642 0.85676 0.47243 -0.10200
C 	C 	0.72376 0.81383 0.41579 -0.02900
C 	C 	0.73175 0.78084 0.39534 0.00700
C 	C 	0.77324 0.79090 0.42787 -0.11900
C 	C 	0.80759 0.83544 0.48109 0.11000
C 	C 	0.79796 0.86707 0.50591 -0.05200
H 	H 	0.70565 0.74737 0.35340 0.03300
H 	H 	0.82359 0.90055 0.54835 0.05100
H 	H 	0.69186 0.80563 0.38811 -0.04000
N 	N 	0.85048 0.84922 0.50429 -0.19600
H 	H 	0.86204 0.83149 0.47318 0.04100
H 	H 	0.87421 0.88035 0.54883 0.07700
