data_crystal

_cell_length_a 27.12872
_cell_length_b 28.73709
_cell_length_c 30.38808
_cell_angle_alpha 61.10648
_cell_angle_beta  118.56689
_cell_angle_gamma 133.27947

_symmetry_space_group_name_	'P 1'
_symmetry_space_group_name_H-M	'P 1'

loop_
_symmetry_equiv_pos_as_xyz
  x,y,z

loop_
_atom_site_label
_atom_site_type_symbol
_atom_site_fract_x
_atom_site_fract_y
_atom_site_fract_z
_atom_site_charge
C 	C 	0.76043 0.34780 0.04336 0.12500
N 	N 	0.69800 0.29023 0.05248 -0.14300
C 	C 	0.64877 0.29098 0.05284 0.13000
N 	N 	0.66090 0.34927 0.04163 -0.14300
C 	C 	0.72497 0.40655 0.03707 0.12600
N 	N 	0.77517 0.40583 0.03803 -0.14500
C 	C 	0.74858 0.32082 0.51891 0.12500
N 	N 	0.77390 0.38492 0.50682 -0.14600
C 	C 	0.74520 0.40066 0.51871 0.12600
N 	N 	0.69189 0.35246 0.54292 -0.14400
C 	C 	0.66723 0.28872 0.55560 0.12700
N 	N 	0.69520 0.27282 0.54324 -0.14500
C 	C 	0.26880 0.65865 0.26074 0.12600
N 	N 	0.32522 0.70467 0.23954 -0.14400
C 	C 	0.35356 0.68573 0.23123 0.12700
N 	N 	0.32668 0.62115 0.24529 -0.14400
C 	C 	0.27085 0.57510 0.26682 0.12600
N 	N 	0.24145 0.59375 0.27424 -0.14400
C 	C 	0.27259 0.62686 0.77511 0.12500
N 	N 	0.22595 0.57331 0.75474 -0.14300
C 	C 	0.24885 0.55016 0.74499 0.12700
N 	N 	0.31796 0.58004 0.75608 -0.14400
C 	C 	0.36467 0.63298 0.77678 0.12600
N 	N 	0.34201 0.65675 0.78603 -0.14400
Co	Co	0.08565 0.98323 0.16880 1.19100
Co	Co	0.92270 0.01027 0.10945 1.17800
Co	Co	0.04056 0.04208 0.20020 1.19400
Co	Co	0.97213 0.95851 0.07532 1.18100
C 	C 	0.06350 0.85231 0.20978 0.30900
Co	Co	0.05978 0.90746 0.09821 1.17200
Co	Co	0.92949 0.06096 0.18940 1.16100
C 	C 	0.03402 0.98679 0.99499 0.33600
O 	O 	0.01849 0.15545 0.17637 -0.38600
O 	O 	0.96888 0.03913 0.16285 -0.77800
C 	C 	0.08070 0.17002 0.20388 0.30400
O 	O 	0.11248 0.02729 0.22001 -0.45300
O 	O 	0.90225 0.97612 0.05385 -0.46500
C 	C 	0.89902 0.11142 0.07557 0.31200
O 	O 	0.02198 0.02308 0.12760 -0.57900
C 	C 	0.98559 0.99600 0.28889 0.36800
C 	C 	0.20163 0.01859 0.13987 0.30100
C 	C 	0.90557 0.82396 0.07370 0.31800
O 	O 	0.10285 0.13874 0.20706 -0.37300
O 	O 	0.16220 0.95621 0.14019 -0.39700
O 	O 	0.18221 0.04059 0.15315 -0.39200
O 	O 	0.87264 0.07811 0.11611 -0.42000
O 	O 	0.92067 0.09090 0.06321 -0.40100
O 	O 	0.98181 0.04584 0.26580 -0.43500
O 	O 	0.99752 0.97798 0.26452 -0.38900
O 	O 	0.95873 0.85293 0.05623 -0.41700
O 	O 	0.90475 0.85659 0.09197 -0.41000
O 	O 	0.04174 0.95821 0.11345 -0.75300
C 	C 	0.80601 0.93271 0.16240 0.30600
O 	O 	0.84540 0.96269 0.20041 -0.38700
O 	O 	0.83318 0.92988 0.13804 -0.39200
O 	O 	0.03108 0.83641 0.16520 -0.39300
O 	O 	0.06192 0.89218 0.21845 -0.38700
O 	O 	0.08362 0.98226 0.03179 -0.36400
O 	O 	0.99546 0.99289 0.00428 -0.38800
Co	Co	0.09538 0.96724 0.67643 1.19100
Co	Co	0.90827 0.95821 0.62557 1.18800
Co	Co	0.03452 0.01146 0.70806 1.18200
Co	Co	0.97013 0.91541 0.59380 1.18100
C 	C 	0.12319 0.86777 0.72575 0.31700
Co	Co	0.08633 0.89824 0.61141 1.16900
Co	Co	0.91086 0.01606 0.69597 1.15800
C 	C 	0.01019 0.93580 0.50480 0.35000
O 	O 	0.00712 0.08847 0.73069 -0.40000
O 	O 	0.95660 0.99766 0.67289 -0.76300
C 	C 	0.06066 0.13073 0.70950 0.31400
O 	O 	0.11564 0.00994 0.72564 -0.47200
O 	O 	0.88781 0.91473 0.57699 -0.45700
C 	C 	0.88205 0.06390 0.58119 0.30700
O 	O 	0.01393 0.98615 0.63816 -0.56900
C 	C 	0.96912 0.95682 0.79558 0.31700
C 	C 	0.21025 0.03315 0.62394 0.29200
C 	C 	0.93955 0.78506 0.61381 0.28700
O 	O 	0.08510 0.11035 0.69998 -0.39100
O 	O 	0.16397 0.99717 0.58965 -0.38100
O 	O 	0.19176 0.03519 0.65612 -0.38300
O 	O 	0.91767 0.08202 0.62512 -0.41100
O 	O 	0.87643 0.01891 0.57259 -0.39400
O 	O 	0.91046 0.94848 0.76525 -0.36800
O 	O 	0.00711 0.95672 0.77980 -0.37100
O 	O 	0.00370 0.80282 0.63493 -0.37900
O 	O 	0.91955 0.81389 0.61733 -0.39500
O 	O 	0.05021 0.93415 0.62547 -0.75700
C 	C 	0.79295 0.88396 0.67404 0.31400
O 	O 	0.81060 0.94265 0.66509 -0.40300
O 	O 	0.83208 0.87787 0.66654 -0.40300
O 	O 	0.14835 0.89572 0.68538 -0.41200
O 	O 	0.08993 0.88433 0.72831 -0.40000
O 	O 	0.02598 0.89433 0.53621 -0.40500
O 	O 	0.98825 0.95333 0.52068 -0.37900
C 	C 	0.94972 0.93226 0.92186 -0.12100
C 	C 	0.01782 0.98028 0.94341 -0.09500
C 	C 	0.07136 0.01614 0.91861 0.31100
C 	C 	0.05623 0.00520 0.87193 -0.07800
C 	C 	0.98769 0.95799 0.84981 -0.14100
C 	C 	0.93479 0.92054 0.87580 0.34300
F 	F 	0.86870 0.87315 0.85616 -0.46300
H 	H 	0.90843 0.90291 0.94139 0.09100
H 	H 	0.09732 0.03513 0.85207 0.07900
F 	F 	0.13770 0.06245 0.93910 -0.45000
C 	C 	0.93127 0.94136 0.36204 -0.07400
C 	C 	0.98767 0.96799 0.34472 -0.16700
C 	C 	0.05129 0.98374 0.38043 0.37100
C 	C 	0.05924 0.97586 0.43218 -0.10900
C 	C 	0.00370 0.95190 0.44896 -0.10700
C 	C 	0.93918 0.93345 0.41378 0.30800
F 	F 	0.88384 0.90695 0.42977 -0.44900
H 	H 	0.88199 0.92924 0.33486 0.08000
H 	H 	0.10870 0.98849 0.45927 0.09100
F 	F 	0.10647 0.00973 0.36453 -0.46800
C 	C 	0.19936 0.49328 0.72174 -0.05000
C 	C 	0.21065 0.49673 0.67904 0.10200
C 	C 	0.18494 0.43871 0.67086 -0.08500
C 	C 	0.14317 0.37716 0.70191 -0.00900
C 	C 	0.12220 0.37342 0.73888 0.07300
C 	C 	0.15164 0.43176 0.74916 -0.05400
N 	N 	0.24655 0.55564 0.64616 -0.19800
H 	H 	0.19840 0.44151 0.64090 0.05500
C 	C 	0.12885 0.31819 0.69983 0.00500
N 	N 	0.07437 0.31423 0.76466 -0.19400
H 	H 	0.14031 0.42906 0.78039 0.05000
C 	C 	0.16359 0.29151 0.74074 -0.09800
C 	C 	0.14785 0.23309 0.74199 0.13500
C 	C 	0.09726 0.20152 0.70114 -0.11300
C 	C 	0.06872 0.23240 0.65753 -0.02400
C 	C 	0.08174 0.28903 0.65724 0.06000
H 	H 	0.20172 0.31540 0.77233 0.06100
N 	N 	0.18073 0.20711 0.78274 -0.20400
H 	H 	0.03171 0.20927 0.62545 0.05100
N 	N 	0.04698 0.31347 0.61703 -0.19300
H 	H 	0.21629 0.22939 0.81369 0.09700
H 	H 	0.17273 0.16568 0.78345 0.10100
H 	H 	0.01374 0.29256 0.58525 0.09000
H 	H 	0.05090 0.35201 0.61745 0.08900
H 	H 	0.06102 0.31168 0.79322 0.08800
H 	H 	0.04804 0.27056 0.75522 0.09200
H 	H 	0.26118 0.59872 0.64890 0.09100
H 	H 	0.25738 0.55834 0.61595 0.08500
C 	C 	0.73135 0.82571 0.69518 -0.11100
C 	C 	0.66422 0.80592 0.66372 0.12900
C 	C 	0.60955 0.77132 0.68666 -0.09600
C 	C 	0.62116 0.75644 0.74043 0.00000
C 	C 	0.68641 0.76954 0.77218 0.07300
C 	C 	0.74030 0.80233 0.74900 -0.02400
N 	N 	0.65231 0.82097 0.61149 -0.20400
H 	H 	0.55849 0.75805 0.66252 0.05700
C 	C 	0.56522 0.72905 0.76261 -0.00600
N 	N 	0.69829 0.75261 0.82460 -0.19300
H 	H 	0.79112 0.81477 0.77304 0.07600
C 	C 	0.52699 0.66210 0.78785 -0.08700
C 	C 	0.46665 0.63237 0.80143 0.10200
C 	C 	0.43981 0.66819 0.78408 -0.05100
C 	C 	0.48121 0.73643 0.76319 -0.05400
C 	C 	0.54481 0.76759 0.75353 0.07200
H 	H 	0.54417 0.63311 0.79685 0.05500
N 	N 	0.43492 0.56979 0.83135 -0.19900
H 	H 	0.46246 0.76480 0.75207 0.05000
N 	N 	0.58572 0.83414 0.73537 -0.19400
H 	H 	0.45296 0.54242 0.84206 0.08600
H 	H 	0.39458 0.54919 0.84654 0.09300
H 	H 	0.56910 0.86196 0.72688 0.08500
H 	H 	0.63544 0.85912 0.73152 0.09200
H 	H 	0.74517 0.75910 0.84762 0.11800
H 	H 	0.66184 0.73374 0.84305 0.09100
H 	H 	0.69104 0.84322 0.59375 0.09200
H 	H 	0.60324 0.80855 0.58818 0.08600
C 	C 	0.24836 0.65629 0.78065 -0.04800
C 	C 	0.25037 0.71124 0.74279 0.09900
C 	C 	0.22889 0.73925 0.75006 -0.08300
C 	C 	0.20509 0.71327 0.79415 -0.00800
C 	C 	0.20310 0.65834 0.83207 0.07000
C 	C 	0.22435 0.63009 0.82469 -0.05300
N 	N 	0.27211 0.73692 0.69919 -0.19900
H 	H 	0.23011 0.78115 0.72101 0.05400
C 	C 	0.18049 0.74318 0.79906 0.00400
N 	N 	0.18192 0.63312 0.87581 -0.19500
H 	H 	0.22296 0.58806 0.85364 0.04700
C 	C 	0.10916 0.71495 0.78316 -0.09800
C 	C 	0.08646 0.75289 0.76951 0.12900
C 	C 	0.13606 0.82060 0.76876 -0.11500
C 	C 	0.20542 0.84424 0.79474 -0.01800
C 	C 	0.22836 0.80611 0.80959 0.05800
H 	H 	0.07171 0.66492 0.77850 0.06000
N 	N 	0.01734 0.72490 0.75522 -0.18500
H 	H 	0.24303 0.89488 0.79804 0.04200
N 	N 	0.29635 0.83068 0.83258 -0.19200
H 	H 	0.99954 0.75172 0.74664 0.08500
H 	H 	0.98074 0.67511 0.75473 0.07300
H 	H 	0.33207 0.87825 0.83840 0.08300
H 	H 	0.31378 0.80196 0.84645 0.08700
H 	H 	0.17988 0.59212 0.90329 0.08300
H 	H 	0.16832 0.65439 0.88340 0.08700
H 	H 	0.28634 0.71615 0.69167 0.09100
H 	H 	0.27416 0.77795 0.67178 0.08500
C 	C 	0.13045 0.22976 0.22336 -0.11100
C 	C 	0.14302 0.22468 0.27579 0.13100
C 	C 	0.16606 0.27779 0.28989 -0.10000
C 	C 	0.18091 0.33703 0.25302 0.00600
C 	C 	0.17859 0.34530 0.20233 0.05700
C 	C 	0.15169 0.29093 0.18763 -0.01800
N 	N 	0.13253 0.16887 0.31256 -0.20600
H 	H 	0.17142 0.27265 0.32941 0.05900
C 	C 	0.19605 0.38900 0.26727 -0.00900
N 	N 	0.20169 0.40491 0.16773 -0.19100
H 	H 	0.14438 0.29548 0.14777 0.04100
C 	C 	0.26013 0.42533 0.30000 -0.08500
C 	C 	0.28127 0.48220 0.30677 0.10100
C 	C 	0.23925 0.50484 0.27803 -0.05000
C 	C 	0.17174 0.46425 0.25038 -0.05500
C 	C 	0.14917 0.40566 0.24543 0.07300
H 	H 	0.29439 0.41038 0.31912 0.05400
N 	N 	0.34198 0.51512 0.34059 -0.19900
H 	H 	0.13819 0.48009 0.23022 0.05000
N 	N 	0.08313 0.36627 0.21924 -0.19400
H 	H 	0.37426 0.49979 0.36020 0.08500
H 	H 	0.35612 0.55442 0.34933 0.09200
H 	H 	0.04984 0.38031 0.20139 0.08600
H 	H 	0.06342 0.32038 0.21792 0.09000
H 	H 	0.19722 0.40992 0.12982 0.08100
H 	H 	0.22681 0.44726 0.17858 0.08900
H 	H 	0.12260 0.13159 0.30415 0.12400
H 	H 	0.13794 0.16384 0.35074 0.09900
C 	C 	0.73032 0.88741 0.15717 -0.11100
C 	C 	0.68746 0.90656 0.11768 0.12600
C 	C 	0.62204 0.87616 0.12355 -0.09900
C 	C 	0.59773 0.82494 0.16691 0.00500
C 	C 	0.63646 0.79960 0.20252 0.06000
C 	C 	0.70316 0.83198 0.19781 -0.01700
N 	N 	0.70909 0.95437 0.07441 -0.20300
H 	H 	0.59073 0.89335 0.09493 0.05800
C 	C 	0.53401 0.80098 0.17633 -0.00900
N 	N 	0.61023 0.74479 0.24137 -0.19100
H 	H 	0.73513 0.81576 0.22705 0.04700
C 	C 	0.46894 0.75882 0.14760 -0.08500
C 	C 	0.40770 0.72683 0.16114 0.10100
C 	C 	0.41218 0.73464 0.20575 -0.05000
C 	C 	0.47660 0.78191 0.23117 -0.05400
C 	C 	0.53771 0.81619 0.21624 0.07500
H 	H 	0.46601 0.74980 0.11536 0.05400
N 	N 	0.34483 0.68898 0.13116 -0.19900
H 	H 	0.47965 0.78987 0.26409 0.05100
N 	N 	0.59957 0.86303 0.24051 -0.19400
H 	H 	0.34182 0.68116 0.09949 0.08400
H 	H 	0.29862 0.66951 0.13764 0.09100
H 	H 	0.60219 0.87225 0.27116 0.09000
H 	H 	0.64509 0.89228 0.22807 0.09300
H 	H 	0.64022 0.72788 0.26860 0.08700
H 	H 	0.55915 0.71715 0.24387 0.09100
H 	H 	0.75451 0.97351 0.06693 0.09200
H 	H 	0.67874 0.97065 0.04654 0.08900
C 	C 	0.09541 0.81956 0.25181 -0.11700
C 	C 	0.05529 0.75010 0.26574 0.14800
C 	C 	0.08669 0.71956 0.28060 -0.10500
C 	C 	0.15794 0.75776 0.28370 0.00700
C 	C 	0.20001 0.82584 0.28056 0.05800
C 	C 	0.16815 0.85625 0.26491 -0.01900
N 	N 	0.98650 0.71283 0.26362 -0.21400
H 	H 	0.05498 0.66663 0.28647 0.06200
C 	C 	0.18435 0.72971 0.27870 -0.00900
N 	N 	0.27051 0.86229 0.29133 -0.19100
H 	H 	0.19959 0.90932 0.25800 0.04400
C 	C 	0.18146 0.73551 0.22911 -0.08200
C 	C 	0.20494 0.70902 0.22234 0.10100
C 	C 	0.23495 0.67884 0.26621 -0.04900
C 	C 	0.23643 0.67163 0.31584 -0.05300
C 	C 	0.21109 0.69657 0.32257 0.07100
H 	H 	0.15977 0.75987 0.19558 0.05500
N 	N 	0.19691 0.71122 0.17376 -0.19800
H 	H 	0.25862 0.64772 0.34936 0.04800
N 	N 	0.21348 0.68931 0.37109 -0.19500
H 	H 	0.17714 0.73579 0.14158 0.08700
H 	H 	0.20728 0.68633 0.16740 0.09300
H 	H 	0.23348 0.66492 0.40323 0.08400
H 	H 	0.19567 0.70773 0.37745 0.08900
H 	H 	0.30127 0.91276 0.28816 0.08300
H 	H 	0.29545 0.84041 0.30479 0.08800
H 	H 	0.96294 0.73467 0.25453 0.09400
H 	H 	0.95657 0.66143 0.27310 0.07900
C 	C 	0.78050 0.30334 0.50764 -0.05000
C 	C 	0.83499 0.29890 0.54490 0.09600
C 	C 	0.85168 0.26544 0.53963 -0.08400
C 	C 	0.81605 0.23783 0.49723 -0.01100
C 	C 	0.76694 0.24861 0.45721 0.07000
C 	C 	0.74889 0.28056 0.46316 -0.05500
N 	N 	0.87073 0.32579 0.58610 -0.19900
H 	H 	0.89065 0.25865 0.56962 0.04800
C 	C 	0.82420 0.19103 0.49866 0.00500
N 	N 	0.73713 0.22857 0.41316 -0.19500
H 	H 	0.70852 0.28573 0.43391 0.04600
C 	C 	0.77200 0.12317 0.51167 -0.10200
C 	C 	0.78694 0.07774 0.53077 0.12700
C 	C 	0.85559 0.10105 0.53851 -0.11800
C 	C 	0.90396 0.16753 0.51730 -0.01900
C 	C 	0.88862 0.21289 0.49704 0.05000
H 	H 	0.72110 0.10599 0.51000 0.05500
N 	N 	0.73607 0.01214 0.54362 -0.22100
H 	H 	0.95559 0.18494 0.52056 0.03400
N 	N 	0.93620 0.27730 0.47711 -0.19300
H 	H 	0.68611 0.99521 0.54008 0.09600
H 	H 	0.74504 0.97736 0.55537 0.10900
H 	H 	0.98490 0.29373 0.47797 0.07600
H 	H 	0.92438 0.31109 0.45907 0.08200
H 	H 	0.69926 0.23480 0.38446 0.08000
H 	H 	0.75295 0.20877 0.40619 0.08500
H 	H 	0.86167 0.35344 0.58994 0.08800
H 	H 	0.90973 0.32083 0.61415 0.07900
C 	C 	0.88867 0.72912 0.58956 -0.10700
C 	C 	0.86438 0.66442 0.62016 0.12700
C 	C 	0.84014 0.61665 0.59849 -0.09700
C 	C 	0.83843 0.63241 0.54650 0.00100
C 	C 	0.85523 0.69515 0.51447 0.06600
C 	C 	0.87815 0.74225 0.53622 -0.03000
N 	N 	0.86336 0.64776 0.67001 -0.20400
H 	H 	0.82389 0.56753 0.62235 0.05600
C 	C 	0.82076 0.58335 0.52669 -0.00700
N 	N 	0.85167 0.71120 0.46346 -0.19300
H 	H 	0.89255 0.79080 0.51214 0.06200
C 	C 	0.75311 0.54468 0.49830 -0.08700
C 	C 	0.73075 0.48957 0.48771 0.10200
C 	C 	0.77506 0.47008 0.50936 -0.05200
C 	C 	0.84491 0.51265 0.53277 -0.05400
C 	C 	0.86855 0.56987 0.54099 0.06900
H 	H 	0.71747 0.55683 0.48521 0.05500
N 	N 	0.66679 0.45536 0.45698 -0.19900
H 	H 	0.87989 0.49931 0.54735 0.04600
N 	N 	0.93669 0.61116 0.56300 -0.19400
H 	H 	0.63306 0.46822 0.44282 0.08500
H 	H 	0.65133 0.41772 0.44499 0.09200
H 	H 	0.97114 0.59971 0.57509 0.08000
H 	H 	0.95662 0.65600 0.56664 0.08500
H 	H 	0.86455 0.75779 0.44030 0.09700
H 	H 	0.83671 0.67809 0.44631 0.09000
H 	H 	0.87536 0.68079 0.68553 0.09300
H 	H 	0.84775 0.60048 0.69315 0.08100
C 	C 	0.28429 0.07402 0.62519 -0.11100
C 	C 	0.31248 0.12873 0.58382 0.13100
C 	C 	0.37815 0.15712 0.57998 -0.09900
C 	C 	0.41594 0.13186 0.61676 0.00500
C 	C 	0.38938 0.07947 0.65976 0.05500
C 	C 	0.32417 0.05187 0.66396 -0.02500
N 	N 	0.27706 0.15445 0.54800 -0.20400
H 	H 	0.39959 0.19848 0.54788 0.06000
C 	C 	0.48289 0.16052 0.60940 -0.01000
N 	N 	0.42516 0.05431 0.69627 -0.19200
H 	H 	0.30271 0.01053 0.69607 0.04000
C 	C 	0.54502 0.20731 0.63652 -0.08600
C 	C 	0.60830 0.24392 0.62386 0.10000
C 	C 	0.60837 0.23686 0.58092 -0.05100
C 	C 	0.54743 0.18591 0.55701 -0.05400
C 	C 	0.48466 0.14679 0.57148 0.07100
H 	H 	0.54398 0.21575 0.66710 0.05300
N 	N 	0.66881 0.28505 0.65331 -0.19900
H 	H 	0.54810 0.17863 0.52550 0.04900
N 	N 	0.42638 0.09660 0.54871 -0.19400
H 	H 	0.66819 0.29228 0.68356 0.08200
H 	H 	0.71698 0.30749 0.64814 0.08900
H 	H 	0.42759 0.08818 0.51952 0.08500
H 	H 	0.38008 0.06416 0.56092 0.08800
H 	H 	0.40508 0.01573 0.72790 0.07800
H 	H 	0.47266 0.07210 0.69347 0.08400
H 	H 	0.23029 0.13723 0.55174 0.09600
H 	H 	0.29731 0.19365 0.51667 0.08800
C 	C 	0.81260 0.34668 0.04102 -0.04800
C 	C 	0.84256 0.31694 0.08537 0.09600
C 	C 	0.87280 0.29617 0.07958 -0.08500
C 	C 	0.87535 0.30647 0.03040 -0.00900
C 	C 	0.85418 0.34441 0.98699 0.06500
C 	C 	0.82217 0.36360 0.99263 -0.05800
N 	N 	0.84191 0.30777 0.13344 -0.19900
H 	H 	0.89183 0.26956 0.11320 0.04900
C 	C 	0.88988 0.26900 0.02407 0.00300
N 	N 	0.86426 0.36232 0.94000 -0.19500
H 	H 	0.80171 0.38891 0.95891 0.04500
C 	C 	0.83424 0.21386 0.00314 -0.09600
C 	C 	0.84053 0.16533 0.01176 0.12800
C 	C 	0.90235 0.17114 0.04329 -0.11300
C 	C 	0.96133 0.23127 0.05635 -0.04400
C 	C 	0.95561 0.28044 0.04717 0.04900
H 	H 	0.78486 0.20685 0.98273 0.05400
N 	N 	0.78661 0.11249 0.99090 -0.20600
H 	H 	0.01030 0.23763 0.07753 0.06100
N 	N 	0.01275 0.33768 0.06149 -0.18400
H 	H 	0.73964 0.10661 0.96963 0.07900
H 	H 	0.79199 0.07835 0.99384 0.08500
H 	H 	0.06047 0.34461 0.08070 0.08400
H 	H 	0.01080 0.37654 0.05217 0.09100
H 	H 	0.84639 0.38841 0.90772 0.07900
H 	H 	0.89209 0.35264 0.93548 0.08100
H 	H 	0.82383 0.32650 0.13907 0.08600
H 	H 	0.86207 0.28380 0.16598 0.07900
C 	C 	0.74329 0.46556 0.04272 -0.05000
C 	C 	0.78549 0.52972 0.01304 0.10100
C 	C 	0.80441 0.58411 0.02243 -0.08500
C 	C 	0.77609 0.57496 0.05678 -0.00900
C 	C 	0.72846 0.51043 0.08246 0.07100
C 	C 	0.71570 0.45683 0.07746 -0.05500
N 	N 	0.80499 0.53924 0.97400 -0.20100
H 	H 	0.83955 0.63358 0.00175 0.05700
C 	C 	0.79784 0.63343 0.06622 0.00500
N 	N 	0.69497 0.49966 0.11201 -0.19400
H 	H 	0.68303 0.40781 0.10006 0.05100
C 	C 	0.77501 0.67160 0.02704 -0.09600
C 	C 	0.80133 0.73152 0.03231 0.13600
C 	C 	0.85106 0.75323 0.07745 -0.11900
C 	C 	0.86408 0.70966 0.11976 -0.02200
C 	C 	0.84203 0.65202 0.11362 0.05700
H 	H 	0.73855 0.65576 0.99173 0.05600
N 	N 	0.78059 0.76912 0.99331 -0.20600
H 	H 	0.89878 0.72463 0.15560 0.04600
N 	N 	0.86582 0.61661 0.15229 -0.19200
H 	H 	0.74616 0.75444 0.95896 0.09300
H 	H 	0.79706 0.81233 0.99738 0.09400
H 	H 	0.89740 0.63023 0.18733 0.08000
H 	H 	0.85544 0.57681 0.14751 0.08600
H 	H 	0.66185 0.45197 0.13239 0.08300
H 	H 	0.69937 0.53790 0.11357 0.08900
H 	H 	0.78202 0.50009 0.95986 0.09100
H 	H 	0.83975 0.58693 0.95465 0.08400
C 	C 	0.59107 0.23108 0.07732 -0.05100
C 	C 	0.59150 0.22520 0.12645 0.10000
C 	C 	0.52835 0.18419 0.14074 -0.08600
C 	C 	0.46554 0.14585 0.10822 -0.00900
C 	C 	0.46654 0.14392 0.06297 0.07300
C 	C 	0.52944 0.18772 0.04736 -0.05400
N 	N 	0.65229 0.26008 0.15937 -0.19900
H 	H 	0.52785 0.18350 0.17653 0.05300
C 	C 	0.39927 0.11489 0.11838 0.00400
N 	N 	0.40751 0.10056 0.03445 -0.19400
H 	H 	0.52972 0.19029 0.01067 0.04800
C 	C 	0.36197 0.14170 0.08608 -0.09500
C 	C 	0.29891 0.11380 0.09438 0.13400
C 	C 	0.27424 0.05957 0.13704 -0.10700
C 	C 	0.31448 0.03629 0.17160 -0.03600
C 	C 	0.37524 0.06149 0.16156 0.06100
H 	H 	0.38151 0.18372 0.05379 0.06300
N 	N 	0.26186 0.13849 0.06078 -0.20100
H 	H 	0.29576 0.99517 0.20450 0.05200
N 	N 	0.40874 0.03274 0.19237 -0.20000
H 	H 	0.27989 0.17765 0.02881 0.10200
H 	H 	0.21531 0.11966 0.06613 0.10700
H 	H 	0.39157 0.99445 0.22494 0.09100
H 	H 	0.45036 0.04631 0.18342 0.08600
H 	H 	0.40813 0.10108 0.00008 0.08700
H 	H 	0.36125 0.06433 0.04712 0.09300
H 	H 	0.70027 0.28767 0.15110 0.08800
H 	H 	0.65211 0.25785 0.19466 0.08100
