data_crystal

_cell_length_a 25.95352
_cell_length_b 27.78192
_cell_length_c 29.72837
_cell_angle_alpha 61.08790
_cell_angle_beta  118.60889
_cell_angle_gamma 133.23299

_symmetry_space_group_name_	'P 1'
_symmetry_space_group_name_H-M	'P 1'

loop_
_symmetry_equiv_pos_as_xyz
  x,y,z

loop_
_atom_site_label
_atom_site_type_symbol
_atom_site_fract_x
_atom_site_fract_y
_atom_site_fract_z
_atom_site_charge
Co	Co	0.02768 0.01417 0.21341 1.18900
O 	O 	0.99245 0.08003 0.24843 -0.39100
Co	Co	0.05414 0.05166 0.69703 1.18700
O 	O 	0.02347 0.99678 0.76806 -0.42100
O 	O 	0.06068 0.94558 0.63284 -0.77600
H 	H 	0.04964 0.28016 0.64253 0.04300
C 	C 	0.03332 0.96379 0.00817 0.30200
O 	O 	0.01227 0.99812 0.13895 -0.59300
C 	C 	0.00536 0.91853 0.51882 0.29800
O 	O 	0.02536 0.00973 0.63306 -0.57800
C 	C 	0.02985 0.97783 0.95260 -0.11600
C 	C 	0.02170 0.00013 0.84699 -0.07900
C 	C 	0.99294 0.92403 0.46326 -0.09000
H 	H 	0.06195 0.75235 0.76970 0.04600
O 	O 	0.04594 0.93873 0.12855 -0.77200
C 	C 	0.02679 0.98865 0.37849 -0.06400
C 	C 	0.03813 0.98635 0.43046 0.09800
H 	H 	0.02230 0.70579 0.27865 0.04300
O 	O 	0.02411 0.87855 0.55604 -0.40400
Co	Co	0.07613 0.89290 0.11677 1.16500
O 	O 	0.05960 0.82499 0.18972 -0.39500
Co	Co	0.09725 0.90013 0.62828 1.16700
C 	C 	0.08005 0.18582 0.67758 0.29300
O 	O 	0.16965 0.91327 0.70152 -0.39900
C 	C 	0.08636 0.03974 0.92776 0.13100
C 	C 	0.08234 0.04954 0.87550 -0.05100
H 	H 	0.07728 0.37415 0.67166 0.04600
H 	H 	0.04904 0.61593 0.31800 0.04600
O 	O 	0.08875 0.96428 0.04499 -0.39900
C 	C 	0.10316 0.29460 0.66725 -0.02200
N 	N 	0.09204 0.04410 0.44837 -0.19400
H 	H 	0.06090 0.03645 0.35312 0.05800
Co	Co	0.09204 0.97158 0.18104 1.18300
C 	C 	0.08859 0.84547 0.23295 0.29600
C 	C 	0.05368 0.12702 0.23251 0.29000
O 	O 	0.07742 0.11190 0.21433 -0.38700
O 	O 	0.07622 0.88260 0.23600 -0.39900
Co	Co	0.11223 0.99204 0.67690 1.18200
C 	C 	0.14776 0.89452 0.74256 0.30200
O 	O 	0.10906 0.15511 0.68867 -0.37800
O 	O 	0.11068 0.91319 0.73871 -0.40100
H 	H 	0.07387 0.65342 0.80209 0.04500
H 	H 	0.05564 0.16764 0.30435 0.04400
C 	C 	0.07907 0.74016 0.29630 -0.01600
C 	C 	0.12849 0.25622 0.68263 -0.07200
H 	H 	0.10116 0.04460 0.48639 0.09700
O 	O 	0.11552 0.01820 0.23006 -0.45700
O 	O 	0.13998 0.05093 0.71705 -0.46200
H 	H 	0.12483 0.09736 0.85602 0.05100
N 	N 	0.14306 0.09082 0.95299 -0.20200
H 	H 	0.14405 0.08833 0.98954 0.10300
C 	C 	0.12266 0.37351 0.70075 -0.05500
C 	C 	0.14744 0.34471 0.69610 0.01500
C 	C 	0.12879 0.68664 0.82302 -0.05500
C 	C 	0.15994 0.84853 0.79093 -0.07400
C 	C 	0.11546 0.77818 0.79530 -0.02200
C 	C 	0.10247 0.19371 0.24431 -0.07400
C 	C 	0.09257 0.20726 0.27822 -0.02200
C 	C 	0.10567 0.65678 0.32956 -0.05300
C 	C 	0.12622 0.72000 0.32590 0.01300
C 	C 	0.11620 0.81106 0.28189 -0.07300
H 	H 	0.12541 0.08971 0.42392 0.08800
C 	C 	0.15562 0.39795 0.74560 0.00100
H 	H 	0.07837 0.27033 0.31663 0.04700
O 	O 	0.18478 0.95661 0.15308 -0.42000
S 	S 	0.15716 0.45679 0.74923 0.00700
C 	C 	0.15331 0.74824 0.82689 0.01600
C 	C 	0.10363 0.30055 0.28342 -0.05500
C 	C 	0.16048 0.65000 0.34347 -0.00100
S 	S 	0.14911 0.59327 0.32734 0.00700
O 	O 	0.19044 0.03917 0.15937 -0.38300
O 	O 	0.17365 0.99759 0.59141 -0.40000
O 	O 	0.20609 0.04982 0.65105 -0.37500
H 	H 	0.18579 0.13522 0.93503 0.08900
S 	S 	0.16941 0.61704 0.82604 0.00500
C 	C 	0.11441 0.36308 0.25436 0.00000
C 	C 	0.12401 0.27703 0.26715 0.01600
S 	S 	0.14696 0.26694 0.20103 0.02400
O 	O 	0.01058 0.15875 0.65497 -0.39700
S 	S 	0.20289 0.28400 0.73178 0.02500
C 	C 	0.21789 0.02101 0.14845 0.31900
C 	C 	0.20760 0.34591 0.73341 0.00100
C 	C 	0.17893 0.67192 0.84344 0.00000
S 	S 	0.12658 0.41351 0.27887 0.00900
C 	C 	0.20017 0.77524 0.33455 0.00500
S 	S 	0.20503 0.84609 0.30454 0.01100
C 	C 	0.20642 0.05333 0.60503 0.30400
C 	C 	0.15864 0.31760 0.22504 0.00100
C 	C 	0.15004 0.40411 0.21271 0.02400
C 	C 	0.21615 0.39985 0.78252 0.02400
C 	C 	0.16962 0.38022 0.19601 -0.05800
C 	C 	0.22715 0.79504 0.84775 0.00200
S 	S 	0.24399 0.87117 0.82495 0.02000
C 	C 	0.24128 0.37141 0.77786 -0.05800
C 	C 	0.23078 0.48373 0.79899 -0.01900
C 	C 	0.17333 0.48744 0.23701 -0.02000
C 	C 	0.23363 0.70714 0.34609 0.02500
C 	C 	0.18317 0.47418 0.20279 -0.04700
N 	N 	0.20680 0.56413 0.28028 -0.13700
N 	N 	0.24599 0.57046 0.81710 -0.13700
H 	H 	0.19497 0.41046 0.16285 0.04900
C 	C 	0.25398 0.77085 0.34082 -0.06100
H 	H 	0.23868 0.08587 0.51175 0.04800
C 	C 	0.25881 0.44830 0.81261 -0.04700
C 	C 	0.23489 0.63610 0.32559 -0.01900
C 	C 	0.25367 0.72135 0.85971 0.02400
C 	C 	0.25764 0.65088 0.84137 -0.01900
C 	C 	0.25737 0.11961 0.57452 -0.08100
C 	C 	0.01119 0.01918 0.78932 0.31200
C 	C 	0.22330 0.55333 0.25063 0.12300
H 	H 	0.28642 0.37051 0.80715 0.04700
H 	H 	0.22125 0.51386 0.17753 0.05100
C 	C 	0.29232 0.07150 0.14070 -0.07800
H 	H 	0.31239 0.00296 0.14766 0.04800
C 	C 	0.25419 0.62389 0.29488 0.12200
C 	C 	0.27556 0.55176 0.80737 0.12300
C 	C 	0.27878 0.78461 0.86043 -0.05900
C 	C 	0.27555 0.69939 0.33597 -0.04800
C 	C 	0.27143 0.12687 0.53072 -0.01800
C 	C 	0.28758 0.63327 0.82532 0.12200
C 	C 	0.29826 0.70973 0.85836 -0.04800
H 	H 	0.30859 0.81634 0.33761 0.04700
C 	C 	0.33050 0.05482 0.13739 -0.01500
H 	H 	0.31251 0.46350 0.83734 0.04800
S 	S 	0.32605 0.15290 0.10792 0.02800
H 	H 	0.33639 0.82556 0.86754 0.04700
S 	S 	0.33077 0.18560 0.60122 0.03400
N 	N 	0.28723 0.60260 0.23534 -0.13900
H 	H 	0.32948 0.74146 0.32883 0.05000
N 	N 	0.31901 0.67232 0.28071 -0.14000
N 	N 	0.34658 0.59618 0.80530 -0.14000
C 	C 	0.34071 0.18684 0.52156 0.01600
H 	H 	0.35674 0.74637 0.86376 0.05000
C 	C 	0.38615 0.11068 0.10966 0.01600
N 	N 	0.35834 0.67792 0.82235 -0.13900
H 	H 	0.34795 0.15960 0.46870 0.05000
C 	C 	0.33525 0.66189 0.25059 0.12300
C 	C 	0.39131 0.17048 0.09170 0.00100
H 	H 	0.41539 0.05845 0.10230 0.05000
C 	C 	0.41741 0.10366 0.08778 -0.05300
C 	C 	0.38036 0.22648 0.55807 -0.00000
C 	C 	0.38783 0.65951 0.81222 0.12300
C 	C 	0.37670 0.19432 0.49287 -0.05300
O 	O 	0.99009 0.94243 0.28112 -0.40100
C 	C 	0.73136 0.33512 0.98500 0.12300
N 	N 	0.77174 0.39691 0.99462 -0.13900
C 	C 	0.74033 0.41378 0.00431 0.12500
N 	N 	0.66884 0.36857 0.00506 -0.13900
C 	C 	0.62874 0.30628 0.99666 0.12200
N 	N 	0.65992 0.28982 0.98624 -0.13600
C 	C 	0.73856 0.33794 0.49933 0.12300
N 	N 	0.67073 0.30092 0.50590 -0.13600
C 	C 	0.65598 0.32509 0.52489 0.12500
N 	N 	0.70889 0.38657 0.53689 -0.14000
C 	C 	0.77626 0.42426 0.52959 0.12400
N 	N 	0.79131 0.39995 0.51095 -0.13800
Co	Co	0.90098 0.96780 0.12556 1.18100
Co	Co	0.96624 0.92661 0.09222 1.18700
Co	Co	0.89500 0.01114 0.20532 1.17500
O 	O 	0.94774 0.00174 0.17723 -0.75500
O 	O 	0.88383 0.93291 0.07037 -0.47100
C 	C 	0.89530 0.08725 0.09039 0.29000
C 	C 	0.95135 0.93879 0.30108 0.29700
C 	C 	0.91571 0.78975 0.10141 0.30500
O 	O 	0.90441 0.08851 0.13775 -0.37900
O 	O 	0.86680 0.03046 0.08044 -0.37100
O 	O 	0.89154 0.93429 0.27164 -0.39700
O 	O 	0.97055 0.82364 0.08095 -0.40600
O 	O 	0.90839 0.82174 0.11660 -0.39800
C 	C 	0.77569 0.88057 0.17204 0.30300
O 	O 	0.79253 0.93905 0.16783 -0.40600
O 	O 	0.81991 0.87923 0.16359 -0.40100
O 	O 	0.98585 0.95981 0.01872 -0.38400
Co	Co	0.91545 0.97961 0.62361 1.17700
Co	Co	0.97487 0.92082 0.60350 1.18500
Co	Co	0.92971 0.06060 0.68555 1.17100
O 	O 	0.97134 0.03386 0.66287 -0.74900
O 	O 	0.88877 0.92106 0.58356 -0.47100
C 	C 	0.87051 0.07343 0.56946 0.30200
C 	C 	0.94877 0.78425 0.64557 0.29900
O 	O 	0.85540 0.05591 0.61355 -0.39800
O 	O 	0.88304 0.03916 0.56239 -0.37600
O 	O 	0.99957 0.06596 0.76041 -0.39500
O 	O 	0.01740 0.80711 0.66491 -0.39700
O 	O 	0.92737 0.81814 0.64145 -0.39100
C 	C 	0.81207 0.91262 0.68874 0.29200
O 	O 	0.85173 0.95917 0.71515 -0.40000
O 	O 	0.84351 0.90314 0.67287 -0.40000
O 	O 	0.98374 0.94247 0.52955 -0.39400
C 	C 	0.97051 0.92740 0.92472 -0.03300
C 	C 	0.96608 0.93767 0.87220 0.09200
N 	N 	0.90830 0.88755 0.84627 -0.19800
H 	H 	0.92787 0.87966 0.94411 0.04600
H 	H 	0.86614 0.84261 0.86453 0.08900
H 	H 	0.90558 0.89176 0.80849 0.10200
C 	C 	0.96978 0.93069 0.35822 -0.09200
C 	C 	0.92554 0.86806 0.39131 0.11100
C 	C 	0.93757 0.86542 0.44358 -0.04300
H 	H 	0.90383 0.81750 0.46907 0.05000
N 	N 	0.87238 0.81023 0.37349 -0.20000
H 	H 	0.86513 0.80953 0.33605 0.10200
H 	H 	0.83882 0.76455 0.39779 0.08700
C 	C 	0.56281 0.79697 0.75729 0.00100
C 	C 	0.59360 0.83804 0.71335 -0.05500
C 	C 	0.63178 0.82507 0.70531 0.01600
C 	C 	0.63388 0.76911 0.73838 0.00100
C 	C 	0.60184 0.72723 0.78181 -0.05800
C 	C 	0.56353 0.74021 0.78966 0.02400
S 	S 	0.49271 0.78387 0.76216 0.00400
C 	C 	0.46327 0.70890 0.80677 -0.02000
C 	C 	0.50724 0.69026 0.81744 -0.04600
S 	S 	0.70683 0.78504 0.73542 0.02600
C 	C 	0.73540 0.85972 0.69039 -0.07600
C 	C 	0.68852 0.87579 0.67801 -0.02200
H 	H 	0.59054 0.88034 0.68754 0.04500
H 	H 	0.60507 0.68506 0.80777 0.04700
H 	H 	0.49305 0.63938 0.83800 0.04800
H 	H 	0.70188 0.92640 0.65755 0.03500
C 	C 	0.61037 0.75335 0.23392 0.00200
C 	C 	0.57964 0.74633 0.26662 -0.05900
C 	C 	0.52090 0.75042 0.24292 0.02400
C 	C 	0.49628 0.76430 0.18787 0.00000
C 	C 	0.52572 0.76990 0.15520 -0.05400
C 	C 	0.58601 0.76804 0.17860 0.01500
S 	S 	0.69725 0.78610 0.24749 0.02100
C 	C 	0.70729 0.81729 0.18575 -0.07600
C 	C 	0.64021 0.80325 0.15163 -0.01700
S 	S 	0.41191 0.73877 0.17362 0.00400
C 	C 	0.40507 0.71392 0.23547 -0.02000
C 	C 	0.46969 0.72214 0.26994 -0.04700
H 	H 	0.60045 0.73754 0.30906 0.04800
H 	H 	0.50518 0.77934 0.11273 0.04700
H 	H 	0.63483 0.82851 0.10996 0.04000
H 	H 	0.47475 0.69876 0.31195 0.04800
C 	C 	0.74947 0.23197 0.45655 0.00000
C 	C 	0.73589 0.17071 0.46391 -0.05200
C 	C 	0.79563 0.17090 0.47694 0.01600
C 	C 	0.86678 0.23022 0.48531 0.00300
C 	C 	0.88009 0.28780 0.48650 -0.05800
C 	C 	0.82048 0.28904 0.47022 0.02600
S 	S 	0.69210 0.23747 0.46074 0.01400
C 	C 	0.75330 0.31286 0.47640 -0.01900
C 	C 	0.82280 0.33465 0.48169 -0.04700
S 	S 	0.92214 0.20697 0.52102 0.02600
C 	C 	0.86060 0.12336 0.52462 -0.07300
C 	C 	0.79208 0.11073 0.49922 -0.01500
H 	H 	0.68126 0.12385 0.46242 0.05000
H 	H 	0.93422 0.32841 0.50219 0.05000
H 	H 	0.87246 0.37607 0.49964 0.05100
H 	H 	0.74166 0.06012 0.50409 0.04600
C 	C 	0.83650 0.63803 0.57951 0.00400
C 	C 	0.82630 0.62221 0.53646 -0.05900
C 	C 	0.85065 0.58534 0.54580 0.02500
C 	C 	0.88939 0.56995 0.59626 0.00100
C 	C 	0.89998 0.58613 0.63924 -0.05400
C 	C 	0.87567 0.62303 0.62989 0.01400
S 	S 	0.84455 0.70474 0.57498 0.01500
C 	C 	0.89445 0.71593 0.63590 -0.07500
C 	C 	0.90762 0.66625 0.66180 -0.01800
S 	S 	0.88048 0.50272 0.60085 0.00800
C 	C 	0.83136 0.49225 0.53967 -0.02000
C 	C 	0.81880 0.54231 0.51375 -0.04600
H 	H 	0.79824 0.63616 0.49731 0.04600
H 	H 	0.92837 0.57249 0.67834 0.04800
H 	H 	0.94868 0.66888 0.69814 0.04300
H 	H 	0.77759 0.53960 0.47752 0.04900
C 	C 	0.45190 0.24396 0.49998 0.00100
C 	C 	0.45643 0.26900 0.57034 -0.05600
C 	C 	0.49200 0.27842 0.54012 0.02500
S 	S 	0.50705 0.24260 0.48776 0.01300
C 	C 	0.58252 0.28575 0.53120 -0.02000
C 	C 	0.56574 0.30288 0.55708 -0.04500
H 	H 	0.48685 0.28992 0.60465 0.05000
H 	H 	0.60481 0.33089 0.58751 0.05200
C 	C 	0.90436 0.25085 0.00606 0.00500
C 	C 	0.90807 0.30312 0.00703 -0.05500
C 	C 	0.84746 0.30456 0.97930 0.02500
C 	C 	0.78366 0.25234 0.95416 0.00000
C 	C 	0.77653 0.19493 0.96021 -0.05100
C 	C 	0.83849 0.19548 0.98518 0.01200
S 	S 	0.95414 0.22363 0.05200 0.02800
C 	C 	0.89774 0.14358 0.04571 -0.07100
C 	C 	0.83490 0.13527 0.00729 -0.01300
S 	S 	0.71508 0.25199 0.94528 0.01400
C 	C 	0.76333 0.31942 0.96916 -0.01800
C 	C 	0.83607 0.34244 0.98791 -0.04900
H 	H 	0.95468 0.33889 0.03109 0.05100
H 	H 	0.72382 0.14986 0.94881 0.05000
H 	H 	0.78451 0.08566 0.00233 0.05000
H 	H 	0.87647 0.37809 0.01287 0.05400
C 	C 	0.84286 0.56291 0.06576 0.00000
C 	C 	0.86482 0.58607 0.10860 -0.05400
C 	C 	0.83866 0.61969 0.10308 0.01700
C 	C 	0.78570 0.62273 0.05796 0.00200
C 	C 	0.76204 0.59730 0.01585 -0.05700
C 	C 	0.79020 0.56585 0.02086 0.02700
S 	S 	0.84472 0.50259 0.06921 0.00900
C 	C 	0.78313 0.48118 0.01292 -0.01700
C 	C 	0.75614 0.51971 0.99099 -0.05100
S 	S 	0.79327 0.69042 0.05041 0.02300
C 	C 	0.86012 0.71701 0.10354 -0.07400
C 	C 	0.87944 0.67183 0.12912 -0.01900
H 	H 	0.90450 0.58212 0.14361 0.04800
H 	H 	0.72313 0.60193 0.98044 0.04500
H 	H 	0.70738 0.50801 0.95970 0.04900
H 	H 	0.92966 0.68383 0.15876 0.04200
C 	C 	0.44938 0.15584 0.04549 0.00100
C 	C 	0.42295 0.22256 0.04930 -0.05700
C 	C 	0.45508 0.21599 0.02781 0.02400
S 	S 	0.51629 0.17403 0.03106 0.01500
C 	C 	0.55227 0.25616 0.00008 -0.01800
C 	C 	0.51290 0.27250 0.00211 -0.04400
H 	H 	0.42518 0.26785 0.03497 0.04800
H 	H 	0.53165 0.32439 0.99282 0.04800
