data_crystal

_cell_length_a 30.49752
_cell_length_b 32.79776
_cell_length_c 48.54457
_cell_angle_alpha 60.75790
_cell_angle_beta  118.96164
_cell_angle_gamma 133.22336

_symmetry_space_group_name_	'P 1'
_symmetry_space_group_name_H-M	'P 1'

loop_
_symmetry_equiv_pos_as_xyz
  x,y,z

loop_
_atom_site_label
_atom_site_type_symbol
_atom_site_fract_x
_atom_site_fract_y
_atom_site_fract_z
_atom_site_charge
Co	Co	0.04492 0.00318 0.07629 1.17700
Co	Co	0.06527 0.91440 0.08019 1.17000
O 	O 	0.04052 0.06673 0.06905 -0.46400
O 	O 	0.03500 0.85785 0.15419 -0.37000
O 	O 	0.03168 0.93808 0.09420 -0.75000
Co	Co	0.06433 0.03272 0.56332 1.18000
Co	Co	0.04210 0.93679 0.62177 1.19200
Co	Co	0.10098 0.95224 0.57371 1.17200
O 	O 	0.04544 0.08902 0.54994 -0.46100
O 	O 	0.04154 0.01307 0.60821 -0.58700
C 	C 	0.00929 0.14324 0.59831 0.33000
O 	O 	0.03882 0.13465 0.59128 -0.38700
O 	O 	0.07025 0.97819 0.58818 -0.75200
C 	C 	0.06882 0.05076 0.88396 -0.03800
C 	C 	0.06880 0.04868 0.91344 -0.04000
C 	C 	0.03768 0.06420 0.78050 -0.02300
C 	C 	0.03936 0.06725 0.80880 -0.04700
H 	H 	0.11245 0.07485 0.87826 0.03900
H 	H 	0.11242 0.07067 0.93043 0.04000
C 	C 	0.01740 0.00717 0.37550 -0.03700
C 	C 	0.02539 0.01296 0.40461 -0.03300
H 	H 	0.05684 0.03442 0.36512 0.04000
H 	H 	0.07107 0.04426 0.41663 0.03800
H 	H 	0.09191 0.83015 0.67826 0.03600
H 	H 	0.00787 0.74791 0.17104 0.03700
O 	O 	0.05197 0.86789 0.60094 -0.39300
O 	O 	0.11931 0.93629 0.65270 -0.37300
H 	H 	0.04224 0.68452 0.20202 0.05200
C 	C 	0.00959 0.10002 0.13601 0.31600
C 	C 	0.08102 0.86439 0.15143 0.29700
O 	O 	0.02881 0.09920 0.11679 -0.37900
O 	O 	0.11149 0.90530 0.12842 -0.38800
O 	O 	0.13846 0.99934 0.06705 -0.38900
C 	C 	0.15769 0.94097 0.64365 0.29500
O 	O 	0.15073 0.03342 0.54418 -0.42200
H 	H 	0.05714 0.10323 0.76155 0.03800
H 	H 	0.06049 0.10864 0.81160 0.04200
C 	C 	0.04302 0.19658 0.60739 -0.11000
C 	C 	0.04016 0.26786 0.60870 -0.08900
C 	C 	0.01597 0.22555 0.59482 0.05500
H 	H 	0.01734 0.28816 0.59969 0.05600
C 	C 	0.14821 0.80481 0.68838 -0.07400
C 	C 	0.13602 0.84497 0.67768 0.02500
H 	H 	0.11378 0.75958 0.69748 0.05200
C 	C 	0.06712 0.20666 0.12202 0.02500
C 	C 	0.04532 0.15369 0.14538 -0.09500
H 	H 	0.10347 0.29569 0.11009 0.05000
H 	H 	0.06447 0.20938 0.09817 0.03400
C 	C 	0.07626 0.73080 0.19893 -0.07400
C 	C 	0.05677 0.76673 0.18147 0.02300
C 	C 	0.10053 0.82692 0.17560 -0.08800
C 	C 	0.16900 0.03647 0.08406 0.28400
O 	O 	0.14029 0.04833 0.08902 -0.38900
C 	C 	0.18270 0.08121 0.55258 0.30700
O 	O 	0.17100 0.97311 0.61500 -0.38600
O 	O 	0.15657 0.09063 0.56168 -0.39400
C 	C 	0.09674 0.21291 0.63263 0.03500
C 	C 	0.12065 0.25493 0.64669 -0.08300
C 	C 	0.09175 0.28173 0.63521 0.05800
C 	C 	0.11187 0.31975 0.65312 -0.05800
H 	H 	0.11796 0.19083 0.64256 0.03100
H 	H 	0.12107 0.38822 0.61164 0.04300
H 	H 	0.11359 0.45713 0.61942 0.04700
C 	C 	0.17821 0.90309 0.66363 -0.09100
H 	H 	0.17060 0.74126 0.68057 0.04600
C 	C 	0.10426 0.30158 0.16399 -0.05500
C 	C 	0.08902 0.25187 0.15879 0.05000
C 	C 	0.08864 0.25546 0.12867 -0.07700
C 	C 	0.04883 0.15089 0.17614 0.02400
C 	C 	0.06968 0.19943 0.18266 -0.07700
H 	H 	0.08751 0.32647 0.14414 0.04600
H 	H 	0.03287 0.11042 0.19455 0.03600
H 	H 	0.13155 0.63205 0.19915 0.04700
C 	C 	0.13961 0.75478 0.21068 0.04900
C 	C 	0.01685 0.97182 0.01705 0.29700
C 	C 	0.01264 0.01680 0.83309 0.01200
O 	O 	0.00721 0.99375 0.02864 -0.37400
C 	C 	0.01266 0.01971 0.86257 0.00400
C 	C 	0.12828 0.37391 0.63794 -0.04400
H 	H 	0.06859 0.19567 0.20580 0.05000
H 	H 	0.13261 0.67371 0.23900 0.04600
C 	C 	0.15753 0.41539 0.65640 0.03400
C 	C 	0.14747 0.45811 0.64219 -0.05700
H 	H 	0.16064 0.26552 0.66707 0.05100
H 	H 	0.11680 0.30442 0.67925 0.04500
H 	H 	0.17777 0.53841 0.64421 0.04100
C 	C 	0.20990 0.77852 0.69070 -0.05400
C 	C 	0.20318 0.82249 0.68574 0.04900
H 	H 	0.19433 0.66748 0.72175 0.04700
C 	C 	0.16005 0.71720 0.22455 -0.05400
C 	C 	0.16364 0.85071 0.18955 0.02200
H 	H 	0.16329 0.57688 0.20361 0.04200
H 	H 	0.22301 0.11653 0.50105 0.03000
C 	C 	0.01268 0.01542 0.92182 0.00900
C 	C 	0.01281 0.00132 0.95505 0.00600
C 	C 	0.01400 0.99009 0.98298 -0.05600
C 	C 	0.18306 0.81474 0.20752 -0.07400
C 	C 	0.18347 0.50396 0.65642 -0.01300
C 	C 	0.23517 0.92147 0.66318 0.02000
C 	C 	0.16037 0.37062 0.19622 0.03400
C 	C 	0.14104 0.31814 0.19198 -0.04600
H 	H 	0.14882 0.33136 0.24541 0.04500
H 	H 	0.17928 0.42300 0.14854 0.04500
C 	C 	0.17783 0.64383 0.21253 -0.05700
H 	H 	0.19771 0.89709 0.18579 0.03600
C 	C 	0.00928 0.01073 0.77626 -0.02300
C 	C 	0.24743 0.88138 0.67391 -0.07400
H 	H 	0.21471 0.60799 0.71985 0.04100
C 	C 	0.16493 0.37087 0.22634 -0.05800
C 	C 	0.18131 0.42219 0.17170 -0.05700
H 	H 	0.15731 0.29295 0.21196 0.04200
C 	C 	0.19589 0.61254 0.21507 -0.01400
C 	C 	0.20681 0.73331 0.21607 -0.04700
C 	C 	0.24595 0.12721 0.54783 -0.09800
C 	C 	0.23678 0.07224 0.09225 -0.08900
H 	H 	0.24188 0.00073 0.12508 0.02300
O 	O 	0.01244 0.92368 0.03361 -0.38300
C 	C 	0.20144 0.41716 0.68609 -0.05700
C 	C 	0.23436 0.68835 0.71361 -0.05700
C 	C 	0.25994 0.13609 0.52094 0.02300
H 	H 	0.26850 0.96631 0.65281 0.03600
C 	C 	0.19291 0.42263 0.23243 -0.01400
C 	C 	0.22069 0.69253 0.22536 0.03500
H 	H 	0.23189 0.83356 0.21816 0.05100
H 	H 	0.24748 0.15178 0.06074 0.03200
H 	H 	0.19895 0.42285 0.25628 0.03800
C 	C 	0.22993 0.50748 0.68495 -0.02500
H 	H 	0.21104 0.38552 0.69705 0.04400
C 	C 	0.24593 0.65460 0.71252 -0.01400
C 	C 	0.20866 0.47364 0.17773 -0.01200
H 	H 	0.23413 0.77647 0.20136 0.04400
C 	C 	0.26411 0.78520 0.70626 -0.04700
C 	C 	0.21690 0.47450 0.20852 -0.02500
H 	H 	0.22687 0.51352 0.15907 0.03900
C 	C 	0.26695 0.04538 0.11151 0.01500
H 	H 	0.28398 0.14777 0.59379 0.03000
C 	C 	0.23630 0.46221 0.70057 -0.01300
O 	O 	0.02501 0.93159 0.53473 -0.38900
C 	C 	0.27015 0.13044 0.07542 0.02200
N 	N 	0.24067 0.55025 0.22349 -0.14000
C 	C 	0.27501 0.74891 0.70468 0.03500
H 	H 	0.28983 0.89567 0.67139 0.05000
C 	C 	0.29421 0.15394 0.57302 0.02300
N 	N 	0.26599 0.59376 0.69536 -0.14000
C 	C 	0.25705 0.62972 0.23048 -0.02400
C 	C 	0.27954 0.56264 0.69450 0.12100
C 	C 	0.26083 0.52983 0.21740 0.12000
H 	H 	0.30289 0.82173 0.71707 0.04400
H 	H 	0.27137 0.46402 0.72288 0.03800
C 	C 	0.28037 0.70730 0.24263 -0.05800
C 	C 	0.29849 0.68113 0.70272 -0.02400
C 	C 	0.28012 0.60496 0.22733 0.11900
C 	C 	0.32120 0.16608 0.52081 -0.07800
C 	C 	0.31261 0.64590 0.70289 0.11900
C 	C 	0.29829 0.67568 0.24552 -0.01300
C 	C 	0.01455 0.97024 0.51358 0.33500
H 	H 	0.31362 0.74456 0.25282 0.04700
O 	O 	0.00716 0.99674 0.52293 -0.37900
N 	N 	0.32028 0.56385 0.21539 -0.14100
O 	O 	0.00200 0.91298 0.65505 -0.45200
C 	C 	0.00015 0.00686 0.74530 0.07800
C 	C 	0.32748 0.77529 0.69502 -0.05800
O 	O 	0.99852 0.96687 0.11547 -0.58400
H 	H 	0.33076 0.16840 0.50112 0.04700
H 	H 	0.98187 0.04337 0.30257 0.04900
H 	H 	0.96836 0.02867 0.25300 0.00400
C 	C 	0.96573 0.00181 0.30275 -0.11700
C 	C 	0.95824 0.99352 0.27469 0.04000
Co	Co	0.98069 0.03426 0.09374 1.17400
O 	O 	0.96242 0.05291 0.14919 -0.41800
H 	H 	0.97467 0.21354 0.57521 0.01000
C 	C 	0.99346 0.00557 0.71903 -0.14300
Co	Co	0.99621 0.05948 0.58015 1.17500
O 	O 	0.97076 0.04243 0.66230 -0.40300
C 	C 	0.98297 0.00648 0.68655 0.30100
C 	C 	0.95908 0.96499 0.36043 -0.00400
C 	C 	0.72351 0.31079 0.01218 0.11600
N 	N 	0.75504 0.36550 0.01400 -0.14100
C 	C 	0.73441 0.37593 0.02748 0.11800
N 	N 	0.68271 0.33192 0.03907 -0.14100
C 	C 	0.65118 0.27759 0.03726 0.11900
N 	N 	0.67129 0.26699 0.02365 -0.14200
C 	C 	0.77977 0.35584 0.51550 0.11600
N 	N 	0.72056 0.32286 0.51800 -0.14200
C 	C 	0.70280 0.34361 0.52566 0.12000
N 	N 	0.74389 0.39742 0.53046 -0.14100
C 	C 	0.80282 0.43063 0.52800 0.11900
N 	N 	0.82119 0.40986 0.52072 -0.14100
C 	C 	0.35954 0.61855 0.21877 0.12100
N 	N 	0.33948 0.63899 0.22486 -0.14100
N 	N 	0.37254 0.66687 0.70912 -0.14100
C 	C 	0.38600 0.63623 0.70770 0.12100
N 	N 	0.33942 0.58403 0.70067 -0.14100
Co	Co	0.91182 0.91494 0.13216 1.18700
Co	Co	0.98077 0.88615 0.11781 1.18000
Co	Co	0.87852 0.99770 0.12228 1.17400
C 	C 	0.93592 0.80902 0.08125 0.30800
O 	O 	0.89658 0.06681 0.08178 -0.42000
O 	O 	0.93041 0.98190 0.11769 -0.75700
C 	C 	0.89236 0.06478 0.05424 0.30700
O 	O 	0.92010 0.85292 0.14197 -0.47200
C 	C 	0.78364 0.88697 0.10327 0.29800
O 	O 	0.91421 0.04142 0.05415 -0.41100
O 	O 	0.80078 0.94009 0.09467 -0.38900
O 	O 	0.82067 0.87710 0.10526 -0.39600
C 	C 	0.89542 0.92057 0.18619 0.32800
O 	O 	0.85494 0.93012 0.16353 -0.41000
O 	O 	0.92305 0.90980 0.17939 -0.39000
O 	O 	0.99372 0.82717 0.09085 -0.42100
O 	O 	0.92050 0.83394 0.08570 -0.40600
Co	Co	0.97313 0.96268 0.63844 1.18900
Co	Co	0.90556 0.02023 0.61970 1.15900
C 	C 	0.99400 0.83968 0.60023 0.28600
O 	O 	0.84734 0.99843 0.57602 -0.37200
O 	O 	0.96603 0.01627 0.61340 -0.77700
C 	C 	0.86825 0.03201 0.54949 0.27900
C 	C 	0.84098 0.89272 0.63648 0.31000
O 	O 	0.91223 0.03709 0.54590 -0.39700
O 	O 	0.85698 0.93430 0.64515 -0.40200
O 	O 	0.87955 0.90044 0.62627 -0.40500
O 	O 	0.94897 0.10683 0.59480 -0.42500
O 	O 	0.99599 0.97900 0.68212 -0.37000
O 	O 	0.97663 0.86372 0.60393 -0.40600
C 	C 	0.95654 0.98724 0.89961 -0.03800
C 	C 	0.95649 0.98934 0.87009 -0.03700
C 	C 	0.98572 0.96347 0.82920 -0.04700
C 	C 	0.98401 0.96048 0.80086 -0.02300
H 	H 	0.91294 0.96155 0.90582 0.04300
H 	H 	0.91286 0.96609 0.85348 0.04100
H 	H 	0.96566 0.92435 0.84798 0.04100
H 	H 	0.96186 0.91897 0.79776 0.03700
C 	C 	0.97527 0.97652 0.41897 -0.00900
C 	C 	0.91640 0.93606 0.40323 -0.03200
C 	C 	0.90829 0.93032 0.37404 -0.03700
C 	C 	0.95155 0.95630 0.33081 0.05200
C 	C 	0.93082 0.90268 0.33070 -0.06700
C 	C 	0.92315 0.89439 0.30254 -0.00800
C 	C 	0.93634 0.93965 0.27439 -0.04100
C 	C 	0.92199 0.92961 0.24433 0.06500
C 	C 	0.91087 0.92401 0.21841 -0.11800
C 	C 	0.98639 0.97427 0.45200 0.05500
C 	C 	0.99762 0.97367 0.47966 -0.12800
H 	H 	0.87741 0.90768 0.41415 0.04100
H 	H 	0.86285 0.89826 0.36235 0.04000
H 	H 	0.92044 0.86745 0.35233 0.04600
H 	H 	0.90604 0.85259 0.30250 0.03300
C 	C 	0.45046 0.66179 0.71051 -0.02600
C 	C 	0.49261 0.72176 0.69984 -0.01300
C 	C 	0.54987 0.74485 0.69713 -0.05900
C 	C 	0.56518 0.70827 0.70466 0.03500
C 	C 	0.52496 0.64885 0.71732 -0.05900
C 	C 	0.46800 0.62573 0.72040 -0.01300
C 	C 	0.62274 0.73236 0.69849 -0.04700
C 	C 	0.62100 0.71386 0.67840 -0.05600
C 	C 	0.67572 0.74733 0.66597 0.05000
C 	C 	0.73238 0.75884 0.68764 -0.07800
C 	C 	0.78715 0.80238 0.67687 0.02600
C 	C 	0.78554 0.83473 0.64447 -0.09700
C 	C 	0.72829 0.81827 0.62208 0.02400
C 	C 	0.67342 0.77442 0.63280 -0.07700
H 	H 	0.48011 0.75024 0.69242 0.04000
H 	H 	0.58135 0.79097 0.68802 0.04600
H 	H 	0.53734 0.62049 0.72421 0.04500
H 	H 	0.43678 0.57960 0.72962 0.03900
H 	H 	0.66575 0.77020 0.70713 0.04400
H 	H 	0.57716 0.67872 0.66782 0.04600
H 	H 	0.73437 0.73666 0.71315 0.05000
H 	H 	0.83117 0.81408 0.69424 0.02700
H 	H 	0.72653 0.84237 0.59688 0.03100
H 	H 	0.62961 0.76457 0.61573 0.05100
C 	C 	0.33895 0.74170 0.69379 -0.01300
H 	H 	0.37932 0.76281 0.68587 0.04000
H 	H 	0.35921 0.82193 0.68822 0.04500
C 	C 	0.72187 0.83818 0.10983 -0.09500
C 	C 	0.71388 0.78892 0.13483 0.02400
C 	C 	0.66193 0.75055 0.14784 -0.07600
C 	C 	0.61787 0.76129 0.13599 0.05100
C 	C 	0.62249 0.80696 0.10878 -0.07700
C 	C 	0.67418 0.84514 0.09565 0.02300
C 	C 	0.57040 0.72814 0.15382 -0.05600
C 	C 	0.57049 0.75447 0.16811 -0.04600
C 	C 	0.52131 0.72258 0.18456 0.03500
C 	C 	0.49023 0.74534 0.17722 -0.05800
C 	C 	0.43978 0.71303 0.19035 -0.01300
C 	C 	0.42031 0.65779 0.21110 -0.02600
C 	C 	0.45467 0.63713 0.22051 -0.01300
C 	C 	0.50510 0.66947 0.20738 -0.05800
H 	H 	0.74982 0.78246 0.14565 0.02900
H 	H 	0.65778 0.71441 0.16831 0.05000
H 	H 	0.58744 0.81435 0.09876 0.05100
H 	H 	0.67872 0.88185 0.07558 0.03500
H 	H 	0.53647 0.68188 0.15613 0.04500
H 	H 	0.60443 0.80084 0.16550 0.04400
H 	H 	0.50362 0.78708 0.16036 0.04500
H 	H 	0.41403 0.72971 0.18313 0.04000
H 	H 	0.44102 0.59518 0.23715 0.03900
H 	H 	0.53072 0.65275 0.21441 0.04500
H 	H 	0.34503 0.68838 0.25834 0.04100
C 	C 	0.85137 0.07229 0.52720 -0.09700
C 	C 	0.78966 0.05231 0.51885 0.01800
C 	C 	0.77580 0.09080 0.50933 -0.07800
C 	C 	0.82354 0.14955 0.50846 0.04400
C 	C 	0.88467 0.17044 0.51323 -0.07400
C 	C 	0.89800 0.13203 0.52146 0.02200
C 	C 	0.81025 0.18543 0.50865 -0.05500
C 	C 	0.84239 0.24291 0.49594 -0.04900
C 	C 	0.82885 0.27678 0.49799 0.03200
C 	C 	0.87324 0.31756 0.51677 -0.05900
C 	C 	0.85822 0.34526 0.52153 -0.01700
C 	C 	0.79875 0.33269 0.50725 -0.02500
C 	C 	0.75558 0.29418 0.48700 -0.01600
C 	C 	0.77052 0.26631 0.48246 -0.05900
H 	H 	0.75289 0.00645 0.52209 0.02500
H 	H 	0.72831 0.07427 0.50485 0.04400
H 	H 	0.92237 0.21548 0.51271 0.04500
H 	H 	0.94559 0.14827 0.52658 0.02400
H 	H 	0.77249 0.16401 0.51906 0.04200
H 	H 	0.87930 0.26520 0.48469 0.03900
H 	H 	0.91864 0.32638 0.52857 0.03900
H 	H 	0.89208 0.37496 0.53712 0.03600
H 	H 	0.71005 0.28505 0.47522 0.03700
H 	H 	0.73636 0.23575 0.46739 0.04300
C 	C 	0.94922 0.78131 0.59506 -0.09200
C 	C 	0.90860 0.77313 0.56444 0.01900
C 	C 	0.88890 0.73010 0.55278 -0.07500
C 	C 	0.90876 0.69430 0.57193 0.04600
C 	C 	0.94282 0.69784 0.60415 -0.07600
C 	C 	0.96161 0.74030 0.61584 0.01900
C 	C 	0.90265 0.66069 0.55647 -0.05500
C 	C 	0.88964 0.60770 0.57224 -0.04700
C 	C 	0.88422 0.57434 0.55693 0.03200
C 	C 	0.90437 0.53879 0.57622 -0.05900
C 	C 	0.88580 0.49634 0.56453 -0.01500
C 	C 	0.84615 0.48856 0.53367 -0.02700
C 	C 	0.83327 0.52922 0.51286 -0.01400
C 	C 	0.85086 0.57106 0.52460 -0.05700
H 	H 	0.89747 0.80370 0.54840 0.03500
H 	H 	0.86144 0.72700 0.52814 0.04900
H 	H 	0.95861 0.67065 0.61935 0.04500
H 	H 	0.99174 0.74534 0.63988 0.02200
H 	H 	0.90856 0.67955 0.53181 0.04200
H 	H 	0.88368 0.58883 0.59689 0.04000
H 	H 	0.93127 0.54169 0.60094 0.04000
H 	H 	0.89727 0.46602 0.58060 0.03400
H 	H 	0.80383 0.52446 0.48868 0.03700
H 	H 	0.83480 0.59801 0.50931 0.04400
C 	C 	0.63915 0.30835 0.52861 -0.02700
C 	C 	0.58879 0.28226 0.50367 -0.01400
C 	C 	0.52936 0.25953 0.50299 -0.06000
C 	C 	0.51976 0.26219 0.52740 0.03400
C 	C 	0.56982 0.28624 0.55304 -0.05900
C 	C 	0.62897 0.30844 0.55385 -0.01400
C 	C 	0.45832 0.24398 0.52455 -0.04800
C 	C 	0.43276 0.21128 0.55031 -0.05600
C 	C 	0.36945 0.18938 0.54714 0.04800
C 	C 	0.35575 0.18475 0.57272 -0.07800
H 	H 	0.59609 0.28200 0.48404 0.03600
H 	H 	0.49103 0.24103 0.48311 0.04200
H 	H 	0.56333 0.28958 0.57171 0.04400
H 	H 	0.66747 0.32805 0.57338 0.03700
H 	H 	0.43280 0.25554 0.50090 0.04200
H 	H 	0.45868 0.20034 0.57401 0.04200
H 	H 	0.39260 0.20289 0.59304 0.04800
C 	C 	0.74765 0.29816 0.99955 -0.02400
C 	C 	0.81151 0.32503 0.00730 -0.01700
C 	C 	0.83347 0.30701 0.99935 -0.05800
C 	C 	0.79185 0.26170 0.98384 0.03100
C 	C 	0.72839 0.23736 0.97425 -0.05800
C 	C 	0.70638 0.25530 0.98220 -0.01600
C 	C 	0.81488 0.23850 0.97891 -0.04800
C 	C 	0.78953 0.18159 0.98935 -0.05500
C 	C 	0.82098 0.15854 0.99305 0.04600
C 	C 	0.78507 0.10097 0.99202 -0.07800
C 	C 	0.81172 0.07112 0.00738 0.02000
C 	C 	0.87425 0.09860 0.02401 -0.09900
C 	C 	0.91218 0.15869 0.01943 0.02400
C 	C 	0.88561 0.18839 0.00488 -0.07700
H 	H 	0.84394 0.35835 0.02050 0.03700
H 	H 	0.88264 0.32685 0.00630 0.04000
H 	H 	0.69602 0.20388 0.96116 0.04200
H 	H 	0.65716 0.23518 0.97536 0.03700
H 	H 	0.85645 0.26864 0.96979 0.03900
H 	H 	0.74654 0.15158 0.99720 0.04200
H 	H 	0.73556 0.07788 0.98192 0.04500
H 	H 	0.78225 0.02512 0.00956 0.02500
H 	H 	0.96117 0.18097 0.03101 0.02200
H 	H 	0.91460 0.23306 0.00547 0.04500
C 	C 	0.76860 0.43425 0.03063 -0.02600
C 	C 	0.77949 0.48056 0.00295 -0.01500
C 	C 	0.79522 0.53126 0.00404 -0.05900
C 	C 	0.80029 0.53607 0.03284 0.03300
C 	C 	0.79229 0.49062 0.06092 -0.05800
C 	C 	0.77815 0.44079 0.05997 -0.01500
C 	C 	0.80754 0.58602 0.03245 -0.04700
C 	C 	0.84065 0.60846 0.05849 -0.05600
C 	C 	0.84467 0.65569 0.05901 0.04800
C 	C 	0.83880 0.65296 0.08692 -0.07800
C 	C 	0.86001 0.70294 0.09206 0.02400
C 	C 	0.88829 0.75614 0.06962 -0.09600
C 	C 	0.88646 0.75729 0.03980 0.02100
C 	C 	0.86541 0.70741 0.03463 -0.07600
H 	H 	0.77236 0.47613 0.98015 0.03800
H 	H 	0.80138 0.56596 0.98224 0.04300
H 	H 	0.79399 0.49258 0.08307 0.04200
H 	H 	0.77040 0.40551 0.08157 0.03600
H 	H 	0.78580 0.60475 0.01059 0.04200
H 	H 	0.86402 0.59103 0.08003 0.04100
H 	H 	0.82160 0.61298 0.10560 0.04700
H 	H 	0.86003 0.70127 0.11491 0.02500
H 	H 	0.90701 0.79799 0.02197 0.02900
H 	H 	0.86957 0.71008 0.01278 0.04800
C 	C 	0.33145 0.15979 0.07536 -0.07600
C 	C 	0.35944 0.13094 0.09197 0.04700
C 	C 	0.32810 0.07463 0.11144 -0.07600
C 	C 	0.42002 0.15871 0.08751 -0.05600
C 	C 	0.42743 0.13184 0.07800 -0.04800
C 	C 	0.48555 0.16213 0.06967 0.03300
C 	C 	0.48363 0.16352 0.03978 -0.06000
C 	C 	0.53858 0.19777 0.03011 -0.01400
C 	C 	0.59572 0.23052 0.05040 -0.02700
C 	C 	0.59776 0.22503 0.08147 -0.01400
C 	C 	0.54293 0.19088 0.09111 -0.06000
H 	H 	0.35598 0.20388 0.06104 0.04900
H 	H 	0.35025 0.05279 0.12547 0.04500
H 	H 	0.45706 0.20326 0.08911 0.04400
H 	H 	0.38858 0.08920 0.07361 0.03900
H 	H 	0.43955 0.14011 0.02345 0.04300
H 	H 	0.53650 0.20122 0.00620 0.03600
H 	H 	0.64176 0.24923 0.09760 0.03500
H 	H 	0.54499 0.18811 0.11483 0.04300
