data_crystal

_cell_length_a 18.40892
_cell_length_b 18.83107
_cell_length_c 39.49601
_cell_angle_alpha 95.41047
_cell_angle_beta  95.41015
_cell_angle_gamma 126.42150

_symmetry_space_group_name_	'P 1'
_symmetry_space_group_name_H-M	'P 1'

loop_
_symmetry_equiv_pos_as_xyz
  x,y,z

loop_
_atom_site_label
_atom_site_type_symbol
_atom_site_fract_x
_atom_site_fract_y
_atom_site_fract_z
_atom_site_charge
C 	C 	0.89810 0.98164 0.96567 0.20800
N 	N 	0.85335 0.89230 0.96589 -0.12100
C 	C 	0.90021 0.85715 0.96426 0.18900
N 	N 	0.99091 0.91135 0.96287 -0.12500
C 	C 	0.03540 0.00008 0.96323 0.18500
N 	N 	0.98913 0.03514 0.96463 -0.13700
C 	C 	0.94884 0.03694 0.49779 0.17200
N 	N 	0.04069 0.08322 0.49890 -0.13100
C 	C 	0.07912 0.04018 0.50120 0.17500
N 	N 	0.02550 0.95103 0.50179 -0.09900
C 	C 	0.93396 0.90486 0.50044 0.18900
N 	N 	0.89559 0.94771 0.49842 -0.11500
Cu	Cu	0.75830 0.33309 0.96585 0.92900
Cu	Cu	0.74558 0.27624 0.04226 0.88700
Cu	Cu	0.60707 0.28878 0.00620 0.90400
Cu	Cu	0.58462 0.31695 0.93384 0.90500
C 	C 	0.69577 0.29042 0.89218 0.29400
O 	O 	0.80740 0.46210 0.96184 -0.32200
C 	C 	0.66397 0.33459 0.08297 0.28900
O 	O 	0.61419 0.25586 0.95981 -0.63900
O 	O 	0.74238 0.35244 0.01370 -0.64000
O 	O 	0.82091 0.27608 0.97416 -0.36000
O 	O 	0.71978 0.18460 0.00691 -0.39600
O 	O 	0.65649 0.32977 0.89695 -0.35700
O 	O 	0.47473 0.21862 0.99674 -0.35500
C 	C 	0.42392 0.21333 0.96918 0.34500
C 	C 	0.76159 0.49317 0.96970 0.32400
O 	O 	0.67562 0.43697 0.97294 -0.38600
O 	O 	0.46029 0.26117 0.94488 -0.37900
O 	O 	0.75096 0.29567 0.91795 -0.34800
C 	C 	0.78002 0.20197 0.98722 0.32500
O 	O 	0.59899 0.30437 0.05555 -0.35800
O 	O 	0.73796 0.33991 0.08048 -0.40000
H 	H 	0.57684 0.19031 0.95123 0.17400
H 	H 	0.77879 0.41611 0.02528 0.18300
Cu	Cu	0.61955 0.20321 0.50512 0.93100
Cu	Cu	0.66828 0.21419 0.42737 0.88700
Cu	Cu	0.66456 0.35344 0.46649 0.90700
Cu	Cu	0.64519 0.37509 0.54034 0.90400
C 	C 	0.66990 0.26068 0.57892 0.29200
O 	O 	0.49245 0.16024 0.51211 -0.35800
C 	C 	0.61445 0.30238 0.38950 0.29200
O 	O 	0.70228 0.34409 0.51184 -0.63800
O 	O 	0.59589 0.22061 0.45802 -0.64000
O 	O 	0.66637 0.13403 0.49339 -0.36900
O 	O 	0.76125 0.23170 0.46071 -0.39700
O 	O 	0.63138 0.30111 0.57575 -0.37100
O 	O 	0.73837 0.48277 0.47709 -0.35500
C 	C 	0.73636 0.53057 0.50319 0.35000
C 	C 	0.46098 0.20514 0.50448 0.32900
O 	O 	0.51862 0.29038 0.50260 -0.36200
O 	O 	0.70869 0.49963 0.53176 -0.37900
O 	O 	0.66257 0.20796 0.55208 -0.35300
C 	C 	0.74061 0.17077 0.47968 0.33100
O 	O 	0.64469 0.36379 0.41765 -0.34700
O 	O 	0.60346 0.22698 0.39104 -0.40000
H 	H 	0.76953 0.37879 0.51927 0.17700
H 	H 	0.53030 0.18664 0.44738 0.19300
C 	C 	0.69857 0.25506 0.61397 -0.07700
C 	C 	0.75526 0.33347 0.63936 0.02400
C 	C 	0.76599 0.32765 0.67425 -0.06000
C 	C 	0.71983 0.24345 0.68402 0.05000
C 	C 	0.66877 0.16520 0.65853 -0.05900
C 	C 	0.65838 0.17095 0.62354 0.02900
C 	C 	0.71428 0.23728 0.71988 -0.00500
C 	C 	0.71101 0.23452 0.75012 -0.00400
C 	C 	0.70491 0.23379 0.78620 0.05000
C 	C 	0.62048 0.19916 0.79630 -0.05900
C 	C 	0.61677 0.21333 0.83127 0.02400
C 	C 	0.69752 0.26203 0.85643 -0.07300
C 	C 	0.78124 0.29177 0.84647 0.03100
C 	C 	0.78491 0.27797 0.81141 -0.05700
H 	H 	0.78765 0.39877 0.63221 0.03600
H 	H 	0.80652 0.38849 0.69379 0.06600
H 	H 	0.63360 0.09984 0.66585 0.06700
H 	H 	0.61496 0.10994 0.60415 0.05200
H 	H 	0.55824 0.16440 0.77696 0.06400
H 	H 	0.55161 0.18901 0.83870 0.03500
H 	H 	0.84403 0.32911 0.86565 0.05900
H 	H 	0.85043 0.30464 0.80381 0.06900
C 	C 	0.64891 0.35381 0.11765 -0.07300
C 	C 	0.72440 0.41481 0.14454 0.02100
C 	C 	0.71113 0.42139 0.17864 -0.06100
C 	C 	0.62246 0.36734 0.18612 0.04500
C 	C 	0.54651 0.31101 0.15909 -0.05800
C 	C 	0.55957 0.30436 0.12494 0.02100
C 	C 	0.61058 0.36104 0.22151 -0.00900
C 	C 	0.60146 0.35631 0.25125 -0.00900
C 	C 	0.59208 0.34783 0.28673 0.04600
C 	C 	0.65698 0.42033 0.31354 -0.05800
C 	C 	0.65986 0.40716 0.34778 0.02300
C 	C 	0.59833 0.32106 0.35533 -0.07000
C 	C 	0.52905 0.25022 0.32872 0.02300
C 	C 	0.52604 0.26362 0.29456 -0.06000
H 	H 	0.79351 0.45503 0.13919 0.04400
H 	H 	0.77012 0.46591 0.19937 0.06000
H 	H 	0.47765 0.26958 0.16465 0.06300
H 	H 	0.50057 0.25772 0.10444 0.06200
H 	H 	0.70778 0.48589 0.30773 0.06300
H 	H 	0.71304 0.46267 0.36811 0.06000
H 	H 	0.47984 0.18395 0.33431 0.04600
H 	H 	0.47494 0.20748 0.27401 0.05900
C 	C 	0.84711 0.69048 0.53225 -0.06800
C 	C 	0.78221 0.62616 0.50326 -0.13400
C 	C 	0.76315 0.65387 0.47413 0.35900
C 	C 	0.81032 0.74535 0.47381 -0.11600
C 	C 	0.87736 0.80951 0.50237 -0.05600
C 	C 	0.89476 0.78180 0.53178 0.32400
F 	F 	0.95868 0.84352 0.55973 -0.39800
H 	H 	0.86208 0.66967 0.55486 0.10000
H 	H 	0.79643 0.76644 0.45107 0.10900
F 	F 	0.69904 0.59219 0.44621 -0.43300
C 	C 	0.90657 0.11889 0.46619 -0.11900
C 	C 	0.90669 0.08273 0.49558 -0.06200
C 	C 	0.85695 0.08082 0.52080 0.31700
C 	C 	0.80461 0.11164 0.51596 -0.07300
C 	C 	0.80091 0.14405 0.48575 -0.13800
C 	C 	0.85343 0.14880 0.46106 0.35200
F 	F 	0.84997 0.17873 0.43144 -0.45500
H 	H 	0.94462 0.12033 0.44659 0.10400
H 	H 	0.76624 0.10953 0.53554 0.10300
F 	F 	0.85825 0.04772 0.54975 -0.42000
C 	C 	0.31915 0.11410 0.52899 -0.07300
C 	C 	0.36358 0.16443 0.50383 -0.13600
C 	C 	0.31586 0.17932 0.47923 0.35300
C 	C 	0.22379 0.14223 0.47941 -0.11800
C 	C 	0.17883 0.09002 0.50409 -0.05800
C 	C 	0.22751 0.07759 0.52931 0.31700
F 	F 	0.18577 0.02985 0.55409 -0.40600
H 	H 	0.35604 0.10415 0.54858 0.10200
H 	H 	0.18668 0.15178 0.45976 0.10800
F 	F 	0.35793 0.22767 0.45464 -0.44000
C 	C 	0.78585 0.63466 0.99385 -0.07400
C 	C 	0.80076 0.58797 0.96910 -0.13300
C 	C 	0.84045 0.62723 0.94105 0.35500
C 	C 	0.86607 0.71254 0.93813 -0.11400
C 	C 	0.85335 0.76027 0.96332 -0.05800
C 	C 	0.81215 0.72041 0.99105 0.31600
F 	F 	0.80060 0.76589 0.01595 -0.42500
H 	H 	0.75378 0.60443 0.01528 0.09500
H 	H 	0.89800 0.74266 0.91666 0.12600
F 	F 	0.85203 0.58186 0.91610 -0.43000
C 	C 	0.82894 0.12942 0.94891 -0.07300
C 	C 	0.80237 0.13859 0.98022 -0.13500
C 	C 	0.79575 0.08593 0.00469 0.35600
C 	C 	0.81856 0.02751 0.99830 -0.13100
C 	C 	0.84962 0.02191 0.96781 -0.06900
C 	C 	0.85230 0.07137 0.94270 0.31800
F 	F 	0.88062 0.06549 0.91276 -0.42400
H 	H 	0.83217 0.16767 0.92947 0.10200
H 	H 	0.81691 0.99034 0.01794 0.13300
F 	F 	0.77121 0.09420 0.03532 -0.45600
C 	C 	0.26430 0.09570 0.93779 -0.06600
C 	C 	0.32457 0.16054 0.96737 -0.13900
C 	C 	0.28939 0.17558 0.99487 0.36200
C 	C 	0.19451 0.12504 0.99292 -0.11900
C 	C 	0.13430 0.05861 0.96371 -0.05700
C 	C 	0.16945 0.04441 0.93603 0.30400
F 	F 	0.11161 0.98074 0.90751 -0.40400
H 	H 	0.29104 0.08429 0.91636 0.08700
H 	H 	0.16771 0.13624 0.01437 0.11000
F 	F 	0.34715 0.23967 0.02331 -0.43500
