data_crystal

_cell_length_a 18.69025
_cell_length_b 18.88007
_cell_length_c 31.56181
_cell_angle_alpha 95.42723
_cell_angle_beta  95.42789
_cell_angle_gamma 126.43740

_symmetry_space_group_name_	'P 1'
_symmetry_space_group_name_H-M	'P 1'

loop_
_symmetry_equiv_pos_as_xyz
  x,y,z

loop_
_atom_site_label
_atom_site_type_symbol
_atom_site_fract_x
_atom_site_fract_y
_atom_site_fract_z
_atom_site_charge
C 	C 	0.90952 0.99573 0.96312 0.03400
C 	C 	0.86230 0.90381 0.96402 -0.07100
C 	C 	0.90873 0.86629 0.96421 0.03200
C 	C 	0.00198 0.92104 0.96461 -0.06800
C 	C 	0.04835 0.01184 0.96282 0.03100
C 	C 	0.00216 0.04899 0.96192 -0.07100
H 	H 	0.79047 0.86213 0.96465 0.05200
H 	H 	0.03815 0.89260 0.96557 0.05400
H 	H 	0.03862 0.11973 0.96115 0.05500
C 	C 	0.95527 0.04541 0.49634 0.03000
C 	C 	0.90140 0.95334 0.49656 -0.07300
C 	C 	0.93945 0.90817 0.49559 0.03200
C 	C 	0.03147 0.95481 0.49433 -0.07000
C 	C 	0.08630 0.04729 0.49520 0.03200
C 	C 	0.04805 0.09270 0.49577 -0.07100
H 	H 	0.82987 0.91687 0.49724 0.05200
H 	H 	0.06085 0.91962 0.49370 0.05400
H 	H 	0.09008 0.16412 0.49589 0.05300
Cu	Cu	0.75753 0.33824 0.95567 0.92700
Cu	Cu	0.74920 0.27675 0.05003 0.87300
Cu	Cu	0.61212 0.29197 0.00937 0.89400
Cu	Cu	0.58680 0.32677 0.92100 0.89500
C 	C 	0.69015 0.29992 0.86418 0.28700
O 	O 	0.80722 0.46747 0.95261 -0.35700
C 	C 	0.66810 0.32621 0.10513 0.30300
O 	O 	0.61603 0.26231 0.95027 -0.63800
O 	O 	0.74551 0.35571 0.01679 -0.64300
O 	O 	0.82043 0.28192 0.96264 -0.36800
O 	O 	0.72282 0.18880 0.00359 -0.44200
O 	O 	0.65302 0.33993 0.87267 -0.38500
O 	O 	0.48187 0.22140 0.99882 -0.37900
C 	C 	0.43169 0.22401 0.96754 0.29700
C 	C 	0.76523 0.49992 0.96551 0.28600
O 	O 	0.68100 0.44493 0.97045 -0.39200
O 	O 	0.46667 0.27362 0.93767 -0.39400
O 	O 	0.74602 0.30311 0.89473 -0.36100
C 	C 	0.78313 0.20873 0.97929 0.30000
O 	O 	0.60707 0.30711 0.07172 -0.38300
O 	O 	0.74242 0.33618 0.09987 -0.41900
H 	H 	0.57806 0.19722 0.93842 0.16500
H 	H 	0.78215 0.41872 0.03220 0.17600
Cu	Cu	0.62327 0.21056 0.50961 0.92800
Cu	Cu	0.68522 0.21848 0.41511 0.87500
Cu	Cu	0.67221 0.35548 0.45655 0.89700
Cu	Cu	0.63304 0.37788 0.54413 0.89500
C 	C 	0.65360 0.27113 0.60122 0.30300
O 	O 	0.49311 0.16108 0.51199 -0.36000
C 	C 	0.63363 0.29857 0.36072 0.28700
O 	O 	0.69986 0.35031 0.51566 -0.64000
O 	O 	0.60660 0.22325 0.44856 -0.64100
O 	O 	0.67860 0.14736 0.50262 -0.36900
O 	O 	0.77308 0.24367 0.46170 -0.43600
O 	O 	0.61530 0.30957 0.59186 -0.38600
O 	O 	0.74342 0.48410 0.46818 -0.38400
C 	C 	0.73340 0.53167 0.49694 0.29800
C 	C 	0.46006 0.20167 0.49810 0.28800
O 	O 	0.51540 0.28550 0.49371 -0.39600
O 	O 	0.68866 0.49824 0.52871 -0.39500
O 	O 	0.65769 0.22149 0.57060 -0.36100
C 	C 	0.75194 0.18319 0.48564 0.29600
O 	O 	0.66307 0.36306 0.39430 -0.38300
O 	O 	0.62448 0.22521 0.36559 -0.41700
H 	H 	0.76533 0.38789 0.52814 0.16800
H 	H 	0.54310 0.18766 0.43306 0.17600
C 	C 	0.68158 0.25306 0.72864 0.01500
C 	C 	0.76545 0.31005 0.75704 -0.05700
C 	C 	0.76909 0.32006 0.80192 0.01500
C 	C 	0.66752 0.26307 0.64552 -0.09800
C 	C 	0.60544 0.21227 0.79013 0.00900
C 	C 	0.60195 0.20174 0.74536 -0.05600
C 	C 	0.67571 0.25774 0.68323 0.03700
C 	C 	0.68872 0.27371 0.81856 -0.08200
H 	H 	0.82743 0.34965 0.74442 0.04600
H 	H 	0.83383 0.36747 0.82358 0.03800
H 	H 	0.54308 0.17561 0.80265 0.02100
H 	H 	0.53688 0.15703 0.72364 0.04700
C 	C 	0.62288 0.32995 0.22902 0.01100
C 	C 	0.55463 0.24880 0.24018 -0.05800
C 	C 	0.55356 0.24047 0.28372 0.01000
C 	C 	0.65054 0.33094 0.14826 -0.10600
C 	C 	0.68437 0.39677 0.30536 0.00800
C 	C 	0.68561 0.40487 0.26174 -0.05700
C 	C 	0.63719 0.33203 0.18490 0.03700
C 	C 	0.62092 0.31332 0.31645 -0.08500
H 	H 	0.50513 0.19087 0.21509 0.04400
H 	H 	0.50290 0.17629 0.29189 0.03200
H 	H 	0.73598 0.45391 0.33031 0.03600
H 	H 	0.73805 0.46815 0.25341 0.04500
C 	C 	0.88311 0.81193 0.49656 0.00100
C 	C 	0.82822 0.74988 0.45816 -0.07000
C 	C 	0.77675 0.65791 0.45800 0.05500
C 	C 	0.78174 0.62760 0.49661 -0.09300
C 	C 	0.83472 0.68989 0.53525 -0.00500
C 	C 	0.88487 0.78171 0.53547 -0.00300
S 	S 	0.70311 0.58176 0.40993 -0.04100
S 	S 	0.94865 0.85821 0.58472 -0.04600
H 	H 	0.89788 0.87879 0.60285 0.03600
H 	H 	0.61972 0.56246 0.40899 0.03500
H 	H 	0.82551 0.77329 0.42841 0.05000
H 	H 	0.83776 0.66683 0.56508 0.03600
C 	C 	0.91270 0.09051 0.49393 0.00500
C 	C 	0.87070 0.08551 0.45339 -0.07600
C 	C 	0.81481 0.11184 0.45038 0.06600
C 	C 	0.80334 0.14711 0.48836 -0.10300
C 	C 	0.84641 0.15336 0.52896 0.00100
C 	C 	0.90092 0.12519 0.53193 -0.00600
S 	S 	0.75471 0.09442 0.39911 -0.12200
S 	S 	0.95328 0.13273 0.58333 -0.04000
H 	H 	0.89900 0.05290 0.59703 0.03600
H 	H 	0.67240 0.01127 0.39102 0.03400
H 	H 	0.87828 0.05722 0.42419 0.05200
H 	H 	0.83815 0.18084 0.55819 0.04100
C 	C 	0.18435 0.09652 0.49699 0.00200
C 	C 	0.21845 0.11256 0.45842 -0.07100
C 	C 	0.30779 0.14437 0.45807 0.05500
C 	C 	0.36388 0.16061 0.49674 -0.09400
C 	C 	0.33025 0.14612 0.53543 -0.00600
C 	C 	0.24132 0.11519 0.53585 -0.00300
S 	S 	0.34751 0.16037 0.40879 -0.06600
S 	S 	0.20206 0.10044 0.58524 -0.04000
H 	H 	0.16457 0.01479 0.59115 0.03700
H 	H 	0.38839 0.24730 0.40408 0.03900
H 	H 	0.17457 0.09763 0.42843 0.05000
H 	H 	0.37393 0.16058 0.56540 0.04200
C 	C 	0.86024 0.76930 0.96331 0.00700
C 	C 	0.84704 0.73751 0.00245 -0.07600
C 	C 	0.82002 0.65092 0.00397 0.04900
C 	C 	0.80544 0.59494 0.96590 -0.08600
C 	C 	0.81698 0.62614 0.92663 -0.00900
C 	C 	0.84326 0.71237 0.92506 -0.00400
S 	S 	0.80788 0.61462 0.05400 -0.06500
S 	S 	0.85399 0.74819 0.87494 -0.04300
H 	H 	0.77391 0.72974 0.85652 0.03500
H 	H 	0.71984 0.57072 0.05917 0.03900
H 	H 	0.86102 0.78133 0.03204 0.05000
H 	H 	0.80337 0.58247 0.89706 0.04100
C 	C 	0.81625 0.15462 0.97510 -0.09600
C 	C 	0.80489 0.10965 0.93406 -0.00000
C 	C 	0.82891 0.05191 0.92987 -0.00700
C 	C 	0.86455 0.03866 0.96709 0.00900
C 	C 	0.87365 0.08186 0.00812 -0.08100
C 	C 	0.85150 0.14088 0.01232 0.05900
S 	S 	0.81433 0.99683 0.87794 -0.03600
S 	S 	0.87390 0.20156 0.06408 -0.11800
H 	H 	0.95962 0.28091 0.07162 0.03400
H 	H 	0.73109 0.91451 0.86849 0.03400
H 	H 	0.77661 0.11888 0.90542 0.04000
H 	H 	0.90247 0.07306 0.03674 0.05100
C 	C 	0.14630 0.06883 0.96320 0.00900
C 	C 	0.20647 0.12928 0.00115 -0.07700
C 	C 	0.29997 0.18153 0.00286 0.05000
C 	C 	0.33388 0.17188 0.96643 -0.08700
C 	C 	0.27356 0.11268 0.92820 -0.00500
C 	C 	0.18011 0.06169 0.92629 -0.00600
S 	S 	0.37345 0.26171 0.04994 -0.03900
S 	S 	0.10614 0.99032 0.87734 -0.03800
H 	H 	0.08284 0.90642 0.87718 0.03600
H 	H 	0.39042 0.34183 0.04603 0.03500
H 	H 	0.18039 0.13571 0.02934 0.05000
H 	H 	0.29947 0.10616 0.89996 0.03300
