data_crystal

_cell_length_a 18.61641
_cell_length_b 18.67198
_cell_length_c 34.37392
_cell_angle_alpha 95.42552
_cell_angle_beta  95.42533
_cell_angle_gamma 126.37656

_symmetry_space_group_name_	'P 1'
_symmetry_space_group_name_H-M	'P 1'

loop_
_symmetry_equiv_pos_as_xyz
  x,y,z

loop_
_atom_site_label
_atom_site_type_symbol
_atom_site_fract_x
_atom_site_fract_y
_atom_site_fract_z
_atom_site_charge
C 	C 	0.95539 0.03451 0.98382 0.11400
N 	N 	0.91460 0.94404 0.97773 -0.12400
C 	C 	0.96606 0.91458 0.97537 0.12300
N 	N 	0.05698 0.97521 0.97748 -0.12200
C 	C 	0.09758 0.06532 0.98432 0.12600
N 	N 	0.04692 0.09464 0.98856 -0.12500
C 	C 	0.91133 0.99804 0.48181 0.13800
N 	N 	0.00271 0.04418 0.48607 -0.13500
C 	C 	0.03883 0.99900 0.48883 0.14900
N 	N 	0.98391 0.90857 0.48820 -0.13800
C 	C 	0.89267 0.86241 0.48326 0.13100
N 	N 	0.85646 0.90706 0.47949 -0.13200
Cu	Cu	0.77655 0.35989 0.95931 0.92500
Cu	Cu	0.79820 0.32152 0.05041 0.88500
Cu	Cu	0.65908 0.36175 0.01399 0.91500
Cu	Cu	0.61730 0.37307 0.92905 0.90400
C 	C 	0.70278 0.32335 0.87583 0.29400
O 	O 	0.83976 0.49339 0.95494 -0.34600
C 	C 	0.68861 0.34788 0.09354 0.28900
O 	O 	0.64071 0.30793 0.95930 -0.63200
O 	O 	0.78086 0.39022 0.01664 -0.63200
O 	O 	0.80807 0.27320 0.96021 -0.35500
O 	O 	0.88399 0.32398 0.02444 -0.40700
O 	O 	0.67910 0.37592 0.88452 -0.37500
O 	O 	0.54528 0.34484 0.01133 -0.36500
C 	C 	0.47950 0.30216 0.97989 0.29100
C 	C 	0.80756 0.53730 0.96693 0.27500
O 	O 	0.72297 0.49224 0.97219 -0.38800
O 	O 	0.49697 0.31644 0.94394 -0.37800
O 	O 	0.75213 0.31659 0.90311 -0.35300
C 	C 	0.85617 0.27054 0.98996 0.28600
O 	O 	0.67836 0.39503 0.07087 -0.36500
O 	O 	0.69880 0.28811 0.07773 -0.41000
H 	H 	0.59399 0.24132 0.95308 0.16400
H 	H 	0.82880 0.45558 0.02709 0.16500
Cu	Cu	0.58016 0.16500 0.50104 0.93000
Cu	Cu	0.64005 0.18029 0.41399 0.87900
Cu	Cu	0.59583 0.29702 0.45083 0.90100
Cu	Cu	0.59909 0.33951 0.53774 0.90400
C 	C 	0.63052 0.23391 0.58511 0.29400
O 	O 	0.45276 0.12010 0.50794 -0.34900
C 	C 	0.57112 0.24871 0.36419 0.28300
O 	O 	0.65125 0.30507 0.50374 -0.63300
O 	O 	0.55387 0.17015 0.44500 -0.64100
O 	O 	0.63522 0.10164 0.49175 -0.35800
O 	O 	0.72955 0.20383 0.45565 -0.42600
O 	O 	0.58657 0.26801 0.57932 -0.37600
O 	O 	0.62652 0.41777 0.45792 -0.36700
C 	C 	0.67567 0.48190 0.48987 0.29300
C 	C 	0.41879 0.16252 0.49773 0.27700
O 	O 	0.47303 0.24879 0.49528 -0.38600
O 	O 	0.67124 0.46263 0.52586 -0.38100
O 	O 	0.62598 0.17942 0.55599 -0.35200
C 	C 	0.70951 0.14119 0.47657 0.29200
O 	O 	0.55858 0.28799 0.39405 -0.35900
O 	O 	0.57507 0.18144 0.36791 -0.40300
H 	H 	0.71848 0.34434 0.50878 0.16800
H 	H 	0.48951 0.12495 0.43171 0.18300
C 	C 	0.62692 0.16009 0.68313 -0.05700
C 	C 	0.68776 0.24432 0.70879 0.02500
C 	C 	0.74050 0.32304 0.69283 -0.05600
C 	C 	0.72713 0.31852 0.65172 0.01700
C 	C 	0.66137 0.23523 0.62623 -0.07500
C 	C 	0.61401 0.15553 0.64194 0.02500
C 	C 	0.68721 0.25176 0.75182 0.02400
H 	H 	0.78830 0.38830 0.71238 0.05500
H 	H 	0.76459 0.38034 0.63982 0.02900
H 	H 	0.56336 0.09078 0.62248 0.04700
H 	H 	0.58668 0.09877 0.69516 0.05600
C 	C 	0.61141 0.23612 0.76571 -0.05700
C 	C 	0.61542 0.25633 0.80641 0.01600
C 	C 	0.69508 0.29193 0.83364 -0.07700
C 	C 	0.76952 0.30364 0.81990 0.02200
C 	C 	0.76563 0.28385 0.77913 -0.05700
H 	H 	0.55054 0.21132 0.74484 0.05500
H 	H 	0.55728 0.24616 0.81671 0.03100
H 	H 	0.83148 0.33120 0.84061 0.05200
H 	H 	0.82442 0.29593 0.76869 0.05700
C 	C 	0.63639 0.38124 0.28149 -0.05600
C 	C 	0.59351 0.31101 0.24821 0.02200
C 	C 	0.53132 0.22107 0.25283 -0.05700
C 	C 	0.51786 0.20087 0.29082 0.01700
C 	C 	0.56646 0.27059 0.32448 -0.07500
C 	C 	0.62236 0.36111 0.31951 0.01200
C 	C 	0.62325 0.33016 0.20985 0.02400
H 	H 	0.49694 0.16651 0.22720 0.05500
H 	H 	0.47285 0.13082 0.29422 0.04400
H 	H 	0.65917 0.41555 0.34523 0.04400
H 	H 	0.68374 0.45102 0.27812 0.05500
C 	C 	0.57301 0.33760 0.17970 -0.05800
C 	C 	0.59621 0.34661 0.14196 0.02200
C 	C 	0.66945 0.34753 0.13410 -0.08100
C 	C 	0.72088 0.34226 0.16461 0.01700
C 	C 	0.69808 0.33396 0.20235 -0.05900
H 	H 	0.51497 0.33449 0.18525 0.05700
H 	H 	0.55559 0.34999 0.11856 0.04900
H 	H 	0.77779 0.34340 0.15892 0.02500
H 	H 	0.73722 0.32828 0.22552 0.05200
C 	C 	0.83302 0.76409 0.48312 -0.00400
C 	C 	0.83788 0.70504 0.45667 -0.02300
C 	C 	0.78721 0.61268 0.45914 0.01400
C 	C 	0.72534 0.57760 0.48557 -0.07200
C 	C 	0.71378 0.63518 0.50901 0.01800
C 	C 	0.77154 0.72898 0.50969 -0.02300
C 	C 	0.89336 0.73891 0.42635 0.09900
C 	C 	0.64024 0.59753 0.53117 0.08900
C 	C 	0.77015 0.78964 0.53874 0.10300
C 	C 	0.80067 0.55445 0.43538 0.07600
N 	N 	0.76908 0.83805 0.56190 -0.10200
N 	N 	0.81143 0.50801 0.41645 -0.12600
N 	N 	0.58158 0.56755 0.54884 -0.10700
N 	N 	0.93763 0.76601 0.40218 -0.10700
C 	C 	0.87123 0.04636 0.48022 -0.01300
C 	C 	0.82694 0.04176 0.44344 -0.01900
C 	C 	0.77102 0.06940 0.44237 0.01500
C 	C 	0.76337 0.10662 0.47806 -0.07800
C 	C 	0.81152 0.11555 0.51477 0.01700
C 	C 	0.86500 0.08491 0.51585 -0.02200
C 	C 	0.83849 0.00786 0.40668 0.08800
C 	C 	0.80688 0.15710 0.55134 0.08800
C 	C 	0.91245 0.09162 0.55364 0.09900
C 	C 	0.71897 0.05676 0.40469 0.05600
N 	N 	0.95033 0.09687 0.58376 -0.10400
N 	N 	0.67745 0.04664 0.37463 -0.13400
N 	N 	0.80330 0.19027 0.58054 -0.10400
N 	N 	0.84779 0.98081 0.37739 -0.09600
C 	C 	0.32073 0.11742 0.49514 -0.06900
C 	C 	0.26644 0.09893 0.45848 0.01300
C 	C 	0.17483 0.06393 0.45671 -0.01800
C 	C 	0.13738 0.04734 0.49157 -0.01300
C 	C 	0.19201 0.06718 0.52831 -0.01900
C 	C 	0.28325 0.10108 0.53004 0.01300
C 	C 	0.30458 0.11483 0.42252 0.07800
C 	C 	0.15429 0.05315 0.56436 0.09900
C 	C 	0.33886 0.12004 0.56780 0.08700
C 	C 	0.11863 0.04371 0.41893 0.10100
N 	N 	0.38316 0.13508 0.59791 -0.10300
N 	N 	0.07368 0.02751 0.38883 -0.10000
N 	N 	0.12409 0.04192 0.59309 -0.10100
N 	N 	0.33499 0.12753 0.39384 -0.10900
C 	C 	0.86250 0.63673 0.96989 -0.07000
C 	C 	0.87641 0.67364 0.93488 0.01300
C 	C 	0.90622 0.76346 0.93641 -0.02400
C 	C 	0.92462 0.81742 0.97310 -0.00300
C 	C 	0.91495 0.78196 0.00836 -0.02200
C 	C 	0.88469 0.69204 0.00679 0.01500
C 	C 	0.85832 0.61864 0.89717 0.08600
C 	C 	0.93665 0.83823 0.04628 0.10400
C 	C 	0.87605 0.65618 0.04315 0.07700
C 	C 	0.91707 0.80009 0.90018 0.09900
N 	N 	0.86910 0.62755 0.07215 -0.11400
N 	N 	0.92574 0.82941 0.87131 -0.10300
N 	N 	0.95404 0.88323 0.07651 -0.10000
N 	N 	0.84392 0.57478 0.86707 -0.10200
C 	C 	0.90073 0.06796 0.98083 -0.00200
C 	C 	0.89679 0.10377 0.94717 -0.02600
C 	C 	0.88706 0.17336 0.95054 0.01800
C 	C 	0.86696 0.19716 0.98602 -0.08000
C 	C 	0.85300 0.14750 0.01700 0.01700
C 	C 	0.87344 0.08559 0.01497 -0.02600
C 	C 	0.90282 0.06885 0.90914 0.10300
C 	C 	0.81378 0.15667 0.04983 0.05300
C 	C 	0.86772 0.04112 0.04818 0.09900
C 	C 	0.90225 0.22312 0.91842 0.09400
N 	N 	0.86318 0.00557 0.07467 -0.10500
N 	N 	0.91442 0.26276 0.89276 -0.10400
N 	N 	0.78243 0.16375 0.07606 -0.13500
N 	N 	0.90749 0.04076 0.87878 -0.10400
C 	C 	0.19663 0.13147 0.98618 -0.00300
C 	C 	0.25766 0.12576 0.01079 -0.02400
C 	C 	0.35085 0.18225 0.00916 0.01500
C 	C 	0.38434 0.25016 0.98570 -0.07400
C 	C 	0.32492 0.26380 0.96561 0.01800
C 	C 	0.23074 0.20084 0.96344 -0.02400
C 	C 	0.22497 0.06360 0.03851 0.10000
C 	C 	0.36093 0.34446 0.94854 0.09100
C 	C 	0.16918 0.20545 0.93660 0.10400
C 	C 	0.41173 0.16911 0.03087 0.07400
N 	N 	0.12058 0.20968 0.91514 -0.10200
N 	N 	0.46024 0.15860 0.04821 -0.11500
N 	N 	0.38961 0.40880 0.93494 -0.10500
N 	N 	0.19886 0.01402 0.06061 -0.10600
