data_crystal

_cell_length_a 16.96341
_cell_length_b 16.61909
_cell_length_c 38.89480
_cell_angle_alpha 90.85550
_cell_angle_beta  90.95986
_cell_angle_gamma 113.49785

_symmetry_space_group_name_	'P 1'
_symmetry_space_group_name_H-M	'P 1'

loop_
_symmetry_equiv_pos_as_xyz
  x,y,z

loop_
_atom_site_label
_atom_site_type_symbol
_atom_site_fract_x
_atom_site_fract_y
_atom_site_fract_z
_atom_site_charge
Ni	Ni	0.80552 0.37198 0.89059 1.10300
O 	O 	0.68718 0.30010 0.86881 -0.70600
Ni	Ni	0.60938 0.31730 0.90324 1.10200
O 	O 	0.86743 0.30673 0.86484 -0.36800
O 	O 	0.76686 0.17805 0.88247 -0.41600
O 	O 	0.83595 0.46056 0.85092 -0.36400
Ni	Ni	0.65169 0.17359 0.86227 1.07700
O 	O 	0.88136 0.56981 0.91726 -0.37300
O 	O 	0.58189 0.11046 0.90407 -0.38500
O 	O 	0.49463 0.22452 0.88461 -0.35800
O 	O 	0.72761 0.40313 0.92146 -0.69500
O 	O 	0.91796 0.45115 0.91368 -0.37100
O 	O 	0.54685 0.36552 0.93720 -0.31200
O 	O 	0.62054 0.50470 0.91845 -0.39800
Ni	Ni	0.75026 0.52713 0.91699 1.09200
H 	H 	0.67987 0.32605 0.84687 0.16200
H 	H 	0.73763 0.39097 0.94562 0.18600
C 	C 	0.58187 0.14572 0.93458 0.34700
O 	O 	0.74180 0.52221 0.86479 -0.40900
C 	C 	0.83751 0.22093 0.86588 0.31100
C 	C 	0.48407 0.18979 0.85312 0.31200
C 	C 	0.80560 0.52146 0.84653 0.31600
C 	C 	0.56832 0.45072 0.94048 0.31800
C 	C 	0.92226 0.52303 0.92980 0.32500
O 	O 	0.61609 0.23140 0.93956 -0.35900
O 	O 	0.54249 0.16703 0.83862 -0.40600
Ni	Ni	0.62178 0.23077 0.59999 1.10000
O 	O 	0.72882 0.34290 0.61181 -0.69800
Ni	Ni	0.71645 0.42932 0.57873 1.10100
O 	O 	0.66578 0.14854 0.62602 -0.35900
O 	O 	0.79009 0.20463 0.59712 -0.40600
O 	O 	0.56516 0.24288 0.64545 -0.36700
Ni	Ni	0.84267 0.33832 0.60750 1.07300
O 	O 	0.42336 0.20195 0.58216 -0.40000
O 	O 	0.87110 0.35478 0.55644 -0.38500
O 	O 	0.82977 0.53192 0.59042 -0.34200
O 	O 	0.60601 0.31938 0.56839 -0.69400
O 	O 	0.51064 0.12680 0.58642 -0.35800
O 	O 	0.67947 0.50859 0.54807 -0.30700
O 	O 	0.55184 0.46768 0.57491 -0.40700
Ni	Ni	0.49749 0.33210 0.57796 1.07500
H 	H 	0.72426 0.36328 0.63545 0.15000
H 	H 	0.60524 0.29964 0.54420 0.16900
C 	C 	0.85296 0.40959 0.53737 0.33900
O 	O 	0.51245 0.34316 0.62985 -0.40300
C 	C 	0.74270 0.15101 0.61997 0.30400
C 	C 	0.87931 0.52903 0.61640 0.29600
C 	C 	0.50550 0.27433 0.64747 0.31900
C 	C 	0.60108 0.50581 0.54920 0.31300
C 	C 	0.44782 0.14085 0.57070 0.33800
O 	O 	0.77373 0.40477 0.53599 -0.34100
O 	O 	0.91175 0.46862 0.61746 -0.39400
C 	C 	0.04708 0.97653 0.70385 -0.02900
H 	H 	0.05015 0.98022 0.67535 0.05800
C 	C 	0.03925 0.96698 0.77215 -0.02800
H 	H 	0.03654 0.96336 0.80068 0.05500
C 	C 	0.98074 0.00632 0.72027 -0.00300
C 	C 	0.02346 0.88423 0.71842 0.00600
C 	C 	0.13130 0.03229 0.72338 0.00100
C 	C 	0.97701 0.00136 0.75532 -0.00500
C 	C 	0.01838 0.87900 0.75347 0.00500
C 	C 	0.12658 0.02732 0.75833 -0.00300
Ni	Ni	0.28933 0.64082 0.41089 1.10500
O 	O 	0.35385 0.76243 0.43327 -0.69800
Ni	Ni	0.33149 0.83886 0.39845 1.09900
O 	O 	0.35737 0.58123 0.43682 -0.33100
O 	O 	0.48318 0.69085 0.42260 -0.41200
O 	O 	0.20247 0.60375 0.45064 -0.31500
Ni	Ni	0.47858 0.80600 0.44133 1.08600
O 	O 	0.09567 0.55415 0.38495 -0.39200
O 	O 	0.53310 0.87670 0.39879 -0.37700
O 	O 	0.41534 0.95677 0.41863 -0.35400
O 	O 	0.25297 0.71667 0.38015 -0.70200
O 	O 	0.21725 0.52536 0.38676 -0.35300
O 	O 	0.27751 0.89934 0.36532 -0.35400
O 	O 	0.14440 0.81703 0.38546 -0.40100
Ni	Ni	0.13015 0.68678 0.38483 1.07100
H 	H 	0.32615 0.76731 0.45495 0.17400
H 	H 	0.26549 0.70777 0.35596 0.15600
C 	C 	0.50054 0.86168 0.36738 0.32100
O 	O 	0.13228 0.69095 0.43693 -0.40800
C 	C 	0.44183 0.61794 0.43893 0.32300
C 	C 	0.43962 0.96287 0.45133 0.34700
C 	C 	0.13587 0.62511 0.45393 0.33200
C 	C 	0.19329 0.87376 0.36352 0.29400
C 	C 	0.14308 0.51485 0.37205 0.30800
O 	O 	0.41743 0.83809 0.36151 -0.38300
O 	O 	0.48458 0.91944 0.46318 -0.38800
Ni	Ni	0.38094 0.73959 0.07561 1.10100
O 	O 	0.25692 0.65351 0.06398 -0.68800
Ni	Ni	0.18963 0.68757 0.09996 1.09900
O 	O 	0.43722 0.68121 0.04276 -0.31200
O 	O 	0.36146 0.54541 0.06335 -0.39800
O 	O 	0.37954 0.81437 0.03383 -0.32300
Ni	Ni	0.23366 0.52734 0.06622 1.10000
O 	O 	0.46616 0.94411 0.10802 -0.39700
O 	O 	0.24698 0.52140 0.11810 -0.39600
O 	O 	0.07015 0.59807 0.08650 -0.37400
O 	O 	0.31350 0.77372 0.11109 -0.69900
O 	O 	0.49966 0.83019 0.08977 -0.35200
O 	O 	0.13547 0.74908 0.13225 -0.36600
O 	O 	0.20721 0.87938 0.10673 -0.40500
Ni	Ni	0.33589 0.89961 0.10779 1.07100
H 	H 	0.23958 0.66614 0.04094 0.18900
H 	H 	0.33122 0.76252 0.13429 0.15100
C 	C 	0.19222 0.53327 0.13859 0.31700
O 	O 	0.33498 0.91510 0.05607 -0.39100
C 	C 	0.41172 0.59565 0.04018 0.32800
C 	C 	0.06343 0.53587 0.06404 0.32900
C 	C 	0.38718 0.89614 0.03629 0.32900
C 	C 	0.15537 0.83353 0.13036 0.30500
C 	C 	0.50761 0.89266 0.11251 0.29700
O 	O 	0.18967 0.61113 0.14155 -0.37000
O 	O 	0.10375 0.48400 0.06999 -0.37200
C 	C 	0.92381 0.08922 0.21150 -0.04000
H 	H 	0.92659 0.09145 0.18296 0.05300
C 	C 	0.91638 0.08307 0.27989 -0.04000
H 	H 	0.91343 0.08077 0.30843 0.05400
C 	C 	0.97663 0.04388 0.22870 -0.00900
C 	C 	0.95660 0.17925 0.22993 0.00400
C 	C 	0.83358 0.04048 0.22581 0.01000
C 	C 	0.97293 0.04066 0.26373 0.01000
C 	C 	0.95209 0.17568 0.26502 0.00400
C 	C 	0.82947 0.03724 0.26086 -0.00600
C 	C 	0.14229 0.46330 0.16100 -0.09900
C 	C 	0.09986 0.40114 0.17814 0.07100
C 	C 	0.04982 0.32547 0.19691 -0.02500
C 	C 	0.00732 0.25962 0.21215 0.01200
C 	C 	0.75962 0.00282 0.20336 -0.00300
C 	C 	0.70063 0.97388 0.18306 -0.01300
C 	C 	0.63378 0.94309 0.15836 0.07100
C 	C 	0.57674 0.91903 0.13709 -0.10500
C 	C 	0.11494 0.87463 0.15228 -0.11600
C 	C 	0.08271 0.91141 0.17053 0.08000
C 	C 	0.04618 0.95643 0.19144 -0.03600
C 	C 	0.01497 0.99597 0.20878 0.02700
C 	C 	0.55949 0.89237 0.33935 -0.09400
C 	C 	0.61532 0.92200 0.31836 0.07500
C 	C 	0.68613 0.95998 0.29623 -0.02700
C 	C 	0.74973 0.99424 0.27921 0.02400
C 	C 	0.10361 0.44348 0.34853 -0.10500
C 	C 	0.06962 0.38343 0.32870 0.08100
C 	C 	0.02923 0.31278 0.30587 -0.02800
C 	C 	0.99419 0.25116 0.28685 0.01500
C 	C 	0.15503 0.91675 0.34106 -0.09900
C 	C 	0.11750 0.94857 0.32277 0.06600
C 	C 	0.06919 0.98220 0.30191 -0.01100
C 	C 	0.02588 0.00911 0.28445 -0.00300
C 	C 	0.36327 0.96236 0.50442 -0.06500
C 	C 	0.40724 0.00834 0.47591 -0.16300
C 	C 	0.44012 0.10018 0.47653 0.35400
C 	C 	0.44303 0.14512 0.50743 -0.09800
C 	C 	0.41455 0.09802 0.53759 -0.14300
C 	C 	0.36862 0.00700 0.53553 0.33400
F 	F 	0.33560 0.96132 0.56423 -0.42300
H 	H 	0.33336 0.89126 0.50346 0.07700
H 	H 	0.47417 0.21611 0.50855 0.05800
F 	F 	0.47770 0.14559 0.44834 -0.43300
C 	C 	0.00481 0.60366 0.48835 -0.08600
C 	C 	0.06071 0.56875 0.47426 -0.11800
C 	C 	0.04149 0.47857 0.47768 0.34400
C 	C 	0.97005 0.42552 0.49630 -0.08700
C 	C 	0.91624 0.46113 0.51163 -0.11100
C 	C 	0.93272 0.55013 0.50673 0.34200
F 	F 	0.88062 0.58558 0.52061 -0.41700
H 	H 	0.01757 0.67242 0.48540 0.10500
H 	H 	0.95735 0.35676 0.49930 0.10600
F 	F 	0.09103 0.44179 0.46252 -0.42300
C 	C 	0.50258 0.57357 0.52818 -0.09700
C 	C 	0.56739 0.54357 0.52131 -0.12400
C 	C 	0.59356 0.54197 0.48718 0.33400
C 	C 	0.55331 0.56766 0.46033 -0.08200
C 	C 	0.48615 0.59392 0.46720 -0.14200
C 	C 	0.46196 0.59832 0.50130 0.33500
F 	F 	0.39930 0.62703 0.50840 -0.45300
H 	H 	0.48283 0.57659 0.55435 0.10000
H 	H 	0.57307 0.56527 0.43412 0.09700
F 	F 	0.65549 0.51241 0.47986 -0.42000
C 	C 	0.78268 0.11136 0.64325 -0.12100
C 	C 	0.82308 0.08320 0.66179 0.07100
C 	C 	0.87571 0.05456 0.68256 -0.03400
C 	C 	0.92301 0.03223 0.69980 0.01200
C 	C 	0.21068 0.08454 0.70604 0.01500
C 	C 	0.27801 0.12872 0.69269 -0.02100
C 	C 	0.35781 0.18068 0.67751 0.07900
C 	C 	0.42560 0.22421 0.66432 -0.09900
C 	C 	0.99714 0.80786 0.69636 0.01900
C 	C 	0.97393 0.74377 0.67801 -0.02400
C 	C 	0.94444 0.66874 0.65663 0.08000
C 	C 	0.91640 0.60463 0.63827 -0.09900
C 	C 	0.04536 0.53614 0.96744 -0.09000
C 	C 	0.96845 0.54770 0.96287 -0.13500
C 	C 	0.92674 0.56259 0.99165 0.32800
C 	C 	0.95790 0.55842 0.02471 -0.07900
C 	C 	0.03087 0.53957 0.02925 -0.15600
C 	C 	0.07595 0.53085 0.00041 0.34100
F 	F 	0.14913 0.51685 0.00432 -0.50700
H 	H 	0.07891 0.52645 0.94533 0.10600
H 	H 	0.92408 0.56763 0.04681 0.09900
F 	F 	0.85268 0.57489 0.98761 -0.48300
C 	C 	0.42418 0.03808 0.00496 -0.09500
C 	C 	0.43837 0.96114 0.01042 -0.10100
C 	C 	0.50488 0.94914 0.99266 0.34400
C 	C 	0.55383 0.01139 0.96903 -0.08800
C 	C 	0.53850 0.08723 0.96318 -0.11900
C 	C 	0.47397 0.10072 0.98159 0.34400
F 	F 	0.45726 0.17288 0.97598 -0.41400
H 	H 	0.37412 0.04920 0.01857 0.10600
H 	H 	0.60344 0.00026 0.95505 0.10000
F 	F 	0.52305 0.87797 0.99854 -0.40900
C 	C 	0.47062 0.48593 0.02288 -0.08300
C 	C 	0.45038 0.55747 0.01448 -0.12000
C 	C 	0.46575 0.59138 0.98123 0.34400
C 	C 	0.50240 0.55504 0.95687 -0.08900
C 	C 	0.52394 0.48443 0.96542 -0.11600
C 	C 	0.50733 0.44959 0.99851 0.33800
F 	F 	0.52923 0.38237 0.00740 -0.41400
H 	H 	0.45920 0.45937 0.04847 0.10200
H 	H 	0.51393 0.58170 0.93131 0.10400
F 	F 	0.44379 0.65855 0.97232 -0.41300
C 	C 	0.86501 0.17466 0.84089 -0.13100
C 	C 	0.88706 0.13556 0.81954 0.07800
C 	C 	0.91393 0.08941 0.79516 -0.03900
C 	C 	0.94006 0.04945 0.77574 0.01600
C 	C 	0.40259 0.16312 0.83622 -0.10200
C 	C 	0.33632 0.13676 0.81999 0.08200
C 	C 	0.26179 0.10184 0.79932 -0.02900
C 	C 	0.19978 0.06906 0.78078 0.01800
C 	C 	0.84881 0.59315 0.82382 -0.10200
C 	C 	0.88681 0.65536 0.80599 0.07300
C 	C 	0.93257 0.73062 0.78634 -0.02500
C 	C 	0.97178 0.79675 0.77071 0.01400
