data_crystal

_cell_length_a 32.09796
_cell_length_b 28.36341
_cell_length_c 19.37450
_cell_angle_alpha 92.67104
_cell_angle_beta  85.32216
_cell_angle_gamma 124.34011

_symmetry_space_group_name_	'P 1'
_symmetry_space_group_name_H-M	'P 1'

loop_
_symmetry_equiv_pos_as_xyz
  x,y,z

loop_
_atom_site_label
_atom_site_type_symbol
_atom_site_fract_x
_atom_site_fract_y
_atom_site_fract_z
_atom_site_charge
C 	C 	0.91618 0.84330 0.85823 -0.00400
C 	C 	0.95405 0.86499 0.80390 -0.02700
C 	C 	0.98992 0.92383 0.79751 -0.06400
C 	C 	0.98797 0.96166 0.84457 0.07900
C 	C 	0.95096 0.93977 0.90037 -0.07100
C 	C 	0.91539 0.88101 0.90706 -0.02300
N 	N 	0.02448 0.02246 0.83561 -0.14300
C 	C 	0.95953 0.11805 0.86681 -0.00200
C 	C 	0.98294 0.11262 0.92101 -0.01800
C 	C 	0.98128 0.06294 0.79209 -0.06800
C 	C 	0.95924 0.09361 0.80209 -0.02300
C 	C 	0.16608 0.09572 0.92264 -0.01500
C 	C 	0.16307 0.11682 0.86057 -0.01800
C 	C 	0.11650 0.09203 0.83201 -0.07300
C 	C 	0.07239 0.04618 0.86531 0.08500
C 	C 	0.07539 0.02557 0.92834 -0.08100
C 	C 	0.12207 0.05016 0.95652 0.00800
C 	C 	0.88271 0.20093 0.90717 0.03200
C 	C 	0.85540 0.14272 0.89028 -0.04000
C 	C 	0.88058 0.11581 0.87625 -0.03200
C 	C 	0.93329 0.14700 0.87882 0.01000
C 	C 	0.96068 0.20542 0.89495 -0.02800
C 	C 	0.93546 0.23234 0.90887 -0.04100
C 	C 	0.80945 0.66600 0.90321 0.01600
C 	C 	0.79281 0.70204 0.89944 -0.03200
C 	C 	0.82700 0.75902 0.87946 -0.03800
C 	C 	0.87856 0.78100 0.86587 0.01300
C 	C 	0.89461 0.74407 0.86619 -0.03700
C 	C 	0.86007 0.68670 0.88404 -0.03200
C 	C 	0.31189 0.17011 0.99902 0.04000
C 	C 	0.28235 0.11183 0.98252 -0.04000
C 	C 	0.23439 0.08731 0.95849 -0.03700
C 	C 	0.21541 0.12079 0.95160 0.02100
C 	C 	0.24426 0.17864 0.97056 -0.04400
C 	C 	0.29234 0.20320 0.99423 -0.01500
H 	H 	0.95535 0.83634 0.76619 0.03900
H 	H 	0.01908 0.94014 0.75571 0.05000
H 	H 	0.95034 0.96805 0.93917 0.05300
H 	H 	0.88758 0.86471 0.95071 0.04100
H 	H 	0.98312 0.13114 0.97127 0.04300
H 	H 	0.02160 0.07673 0.95392 0.05300
H 	H 	0.98053 0.04377 0.74238 0.05600
H 	H 	0.94154 0.09795 0.75978 0.03700
H 	H 	0.19691 0.15209 0.83413 0.04000
H 	H 	0.11446 0.10879 0.78433 0.05600
H 	H 	0.04170 0.99161 0.95623 0.05400
H 	H 	0.12401 0.03409 0.00496 0.01300
H 	H 	0.81467 0.11831 0.88844 0.05500
H 	H 	0.85914 0.07065 0.86404 0.04500
H 	H 	0.95681 0.27745 0.92136 0.05400
H 	H 	0.75373 0.68636 0.91385 0.05200
H 	H 	0.81386 0.78665 0.87727 0.04400
H 	H 	0.93416 0.76031 0.85545 0.04600
H 	H 	0.87311 0.65894 0.88617 0.05300
H 	H 	0.29723 0.08603 0.98626 0.05600
H 	H 	0.21238 0.04263 0.94396 0.04600
H 	H 	0.22967 0.20466 0.96602 0.05000
H 	H 	0.31493 0.24822 0.00713 0.02900
C 	C 	0.89720 0.81545 0.59238 -0.00400
C 	C 	0.92850 0.85174 0.53712 -0.02400
C 	C 	0.95623 0.91100 0.54576 -0.07000
C 	C 	0.95297 0.93446 0.60993 0.07900
C 	C 	0.91933 0.89830 0.66342 -0.06900
C 	C 	0.89214 0.83908 0.65522 -0.02400
N 	N 	0.98348 0.99537 0.62128 -0.14300
C 	C 	0.93115 0.07812 0.51426 -0.00200
C 	C 	0.91039 0.05562 0.58072 -0.02400
C 	C 	0.92749 0.02812 0.61520 -0.06800
C 	C 	0.96601 0.02345 0.58417 0.07800
C 	C 	0.98624 0.04507 0.51684 -0.06500
C 	C 	0.96889 0.07242 0.48216 -0.02600
C 	C 	0.14291 0.07994 0.63525 -0.00600
C 	C 	0.11191 0.02038 0.62942 -0.01800
C 	C 	0.06001 0.99242 0.62307 -0.07600
C 	C 	0.03826 0.02402 0.62102 0.07700
C 	C 	0.06961 0.08381 0.62965 -0.07000
C 	C 	0.12162 0.11154 0.63506 -0.02500
C 	C 	0.85875 0.14877 0.43245 0.01900
C 	C 	0.85390 0.10046 0.40102 -0.03600
C 	C 	0.88072 0.07955 0.42418 -0.03600
C 	C 	0.91285 0.10717 0.47842 0.01200
C 	C 	0.92127 0.15850 0.50511 -0.03700
C 	C 	0.89437 0.17928 0.48210 -0.03600
C 	C 	0.82042 0.63396 0.57107 0.02000
C 	C 	0.79342 0.65747 0.59493 -0.03600
C 	C 	0.81835 0.71664 0.60150 -0.03600
C 	C 	0.87067 0.75281 0.58498 0.01200
C 	C 	0.89773 0.72910 0.56189 -0.03700
C 	C 	0.87258 0.66998 0.55415 -0.03600
C 	C 	0.30168 0.15867 0.64971 0.02100
C 	C 	0.26709 0.12382 0.70366 -0.03800
C 	C 	0.21532 0.09868 0.69937 -0.03900
C 	C 	0.19777 0.10919 0.64183 0.01200
C 	C 	0.23250 0.14545 0.58892 -0.03700
C 	C 	0.28417 0.16960 0.59249 -0.03600
H 	H 	0.93181 0.83403 0.48786 0.03700
H 	H 	0.98149 0.93856 0.50366 0.05000
H 	H 	0.91496 0.91622 0.71185 0.05400
H 	H 	0.86783 0.81158 0.69806 0.04000
H 	H 	0.88077 0.05919 0.60549 0.04300
H 	H 	0.91063 0.01007 0.66602 0.05100
H 	H 	0.01547 0.04100 0.49179 0.04600
H 	H 	0.98486 0.08932 0.43063 0.03800
H 	H 	0.12798 0.99557 0.63045 0.03500
H 	H 	0.03686 0.94631 0.62178 0.05100
H 	H 	0.05347 0.10866 0.63358 0.05100
H 	H 	0.14516 0.15753 0.64100 0.03800
H 	H 	0.82704 0.07714 0.36184 0.04900
H 	H 	0.87442 0.04024 0.40268 0.04400
H 	H 	0.94660 0.18060 0.54626 0.04400
H 	H 	0.89894 0.21715 0.50583 0.04900
H 	H 	0.75308 0.62990 0.60787 0.05300
H 	H 	0.79700 0.73439 0.61903 0.04500
H 	H 	0.93821 0.75646 0.54996 0.04200
H 	H 	0.89364 0.65214 0.53537 0.04900
H 	H 	0.28019 0.11489 0.74788 0.05100
H 	H 	0.18877 0.07008 0.73995 0.04400
H 	H 	0.21932 0.15363 0.54417 0.04400
H 	H 	0.31048 0.19585 0.55019 0.05100
Co	Co	0.72375 0.34665 0.00740 1.17700
O 	O 	0.78578 0.35243 0.95391 -0.35200
Co	Co	0.61310 0.33330 0.03280 1.18000
O 	O 	0.66035 0.31422 0.95439 -0.44500
O 	O 	0.66853 0.41229 0.05388 -0.41600
O 	O 	0.72591 0.27240 0.99594 -0.32000
C 	C 	0.70955 0.44163 0.01198 0.31600
O 	O 	0.62047 0.34832 0.92332 -0.34800
C 	C 	0.51686 0.26904 0.06375 0.30700
C 	C 	0.67715 0.32876 0.13424 0.31500
O 	O 	0.54719 0.32203 0.08061 -0.36700
O 	O 	0.54199 0.25174 0.02938 -0.35000
O 	O 	0.72449 0.34930 0.11798 -0.34700
O 	O 	0.65029 0.30633 0.08113 -0.45700
O 	O 	0.74229 0.42682 0.00226 -0.53100
C 	C 	0.76837 0.29921 0.95952 0.28800
C 	C 	0.65369 0.33704 0.90397 0.30500
H 	H 	0.77862 0.45675 0.98596 0.20100
Co	Co	0.69737 0.28192 0.49266 1.18500
O 	O 	0.74972 0.27970 0.42309 -0.36500
Co	Co	0.60169 0.28801 0.56177 1.18700
O 	O 	0.63022 0.26316 0.46129 -0.45500
O 	O 	0.66703 0.35972 0.58256 -0.41500
O 	O 	0.68655 0.20212 0.46353 -0.34200
C 	C 	0.70581 0.38960 0.53680 0.33900
O 	O 	0.59901 0.31273 0.46015 -0.34400
C 	C 	0.51059 0.23380 0.61846 0.29700
C 	C 	0.66780 0.26153 0.62813 0.32500
O 	O 	0.54805 0.28397 0.63549 -0.36000
O 	O 	0.52452 0.21428 0.56679 -0.32700
O 	O 	0.71152 0.27808 0.59779 -0.35400
O 	O 	0.63475 0.24731 0.58328 -0.45300
O 	O 	0.72373 0.36529 0.49475 -0.51900
C 	C 	0.72755 0.22500 0.42362 0.29800
C 	C 	0.62312 0.29451 0.42418 0.30700
H 	H 	0.75442 0.39048 0.46207 0.17900
C 	C 	0.65680 0.31935 0.83252 -0.08100
C 	C 	0.70057 0.35306 0.78862 0.06000
C 	C 	0.70348 0.33402 0.72174 -0.00600
C 	C 	0.66332 0.28110 0.69829 -0.10300
C 	C 	0.62023 0.24648 0.74312 0.06500
C 	C 	0.61666 0.26641 0.80924 -0.01400
H 	H 	0.73739 0.36002 0.68827 0.05800
H 	H 	0.58339 0.23977 0.84359 0.06500
I 	I 	0.76349 0.43197 0.82211 -0.11700
I 	I 	0.56349 0.16112 0.71661 -0.07700
C 	C 	0.65481 0.31049 0.20504 -0.08900
C 	C 	0.66339 0.27579 0.24254 0.07800
C 	C 	0.65039 0.26829 0.31366 -0.02900
C 	C 	0.62604 0.29234 0.34730 -0.08100
C 	C 	0.61010 0.31920 0.30683 0.07500
C 	C 	0.62651 0.33009 0.23666 -0.02200
H 	H 	0.65966 0.24415 0.34293 0.04900
H 	H 	0.61685 0.35348 0.20652 0.04800
I 	I 	0.69086 0.22934 0.19208 -0.07700
I 	I 	0.55516 0.33550 0.34476 -0.06200
C 	C 	0.79358 0.57176 0.56093 0.01100
C 	C 	0.79274 0.53709 0.61147 0.02400
C 	C 	0.76359 0.47765 0.60334 0.00500
C 	C 	0.73684 0.45251 0.54378 -0.11200
C 	C 	0.73991 0.48760 0.49159 0.08300
C 	C 	0.76754 0.54681 0.50098 -0.07400
H 	H 	0.76229 0.45108 0.64291 0.05100
H 	H 	0.76888 0.57355 0.46148 0.06400
I 	I 	0.83693 0.57354 0.69881 -0.09200
I 	I 	0.70423 0.45312 0.39763 -0.10900
C 	C 	0.82134 0.16189 0.42197 0.00800
C 	C 	0.77556 0.13538 0.46320 0.02800
C 	C 	0.74338 0.15349 0.45938 -0.00800
C 	C 	0.75679 0.19895 0.41579 -0.08500
C 	C 	0.80072 0.22233 0.37034 0.08300
C 	C 	0.83302 0.20415 0.37442 -0.07200
H 	H 	0.70887 0.13372 0.49266 0.06500
H 	H 	0.86750 0.22335 0.34110 0.06300
I 	I 	0.75512 0.06970 0.53452 -0.10100
I 	I 	0.81767 0.28161 0.29169 -0.08500
C 	C 	0.45708 0.21375 0.63418 -0.08200
C 	C 	0.41783 0.15504 0.63137 0.08400
C 	C 	0.36733 0.13767 0.63785 -0.07000
C 	C 	0.35515 0.17782 0.64904 0.01000
C 	C 	0.39407 0.23597 0.65660 0.03000
C 	C 	0.44474 0.25369 0.64871 -0.00600
H 	H 	0.33741 0.09274 0.63377 0.06300
H 	H 	0.47449 0.29866 0.65284 0.06200
I 	I 	0.43284 0.09090 0.62157 -0.07200
I 	I 	0.37751 0.29755 0.68278 -0.09500
C 	C 	0.77610 0.60947 0.93610 0.03000
C 	C 	0.73901 0.56212 0.89893 0.02800
C 	C 	0.71399 0.50728 0.92703 -0.01000
C 	C 	0.72605 0.49928 0.99150 -0.07100
C 	C 	0.75971 0.54700 0.03116 0.06700
C 	C 	0.78458 0.60181 0.00331 -0.09700
H 	H 	0.68680 0.47065 0.89739 0.05700
H 	H 	0.81190 0.63838 0.03294 0.06000
I 	I 	0.72072 0.57187 0.79994 -0.09300
I 	I 	0.77455 0.53730 0.13258 -0.10400
C 	C 	0.79983 0.27690 0.94641 -0.04400
C 	C 	0.81794 0.27458 0.87851 0.06700
C 	C 	0.84620 0.25107 0.86655 -0.05500
C 	C 	0.85609 0.22919 0.92164 -0.01200
C 	C 	0.83838 0.23197 0.98964 0.07900
C 	C 	0.81034 0.25577 0.00166 -0.07000
H 	H 	0.85961 0.24870 0.81417 0.05900
H 	H 	0.79651 0.25761 0.05399 0.07200
I 	I 	0.80016 0.30251 0.79245 -0.08600
I 	I 	0.85287 0.20000 0.07499 -0.13000
C 	C 	0.46471 0.24596 0.04827 -0.10900
C 	C 	0.42617 0.22704 0.10158 0.08100
C 	C 	0.37632 0.20300 0.08504 -0.06400
C 	C 	0.36464 0.19739 0.01566 -0.03300
C 	C 	0.40333 0.21687 0.96243 0.04900
C 	C 	0.45307 0.24125 0.97899 0.01600
H 	H 	0.34655 0.18803 0.12605 0.05500
H 	H 	0.48278 0.25622 0.93786 0.05600
I 	I 	0.44176 0.23207 0.20704 -0.09500
I 	I 	0.38762 0.20931 0.85643 -0.09700
C 	C 	0.00503 0.08201 0.91102 -0.07400
C 	C 	0.00374 0.05632 0.84642 0.07900
H 	H 	0.00140 0.22985 0.89685 0.04100
