data_crystal

_cell_length_a 30.97065
_cell_length_b 30.92875
_cell_length_c 43.43068
_cell_angle_alpha 95.53162
_cell_angle_beta  95.52899
_cell_angle_gamma 125.52314

_symmetry_space_group_name_	'P 1'
_symmetry_space_group_name_H-M	'P 1'

loop_
_symmetry_equiv_pos_as_xyz
  x,y,z

loop_
_atom_site_label
_atom_site_type_symbol
_atom_site_fract_x
_atom_site_fract_y
_atom_site_fract_z
_atom_site_charge
C 	C 	0.04833 0.02392 0.99292 0.02900
C 	C 	0.02458 0.05104 0.99516 -0.07600
H 	H 	0.04867 0.09420 0.99546 0.04800
C 	C 	0.01218 0.04418 0.46468 -0.07500
C 	C 	0.03857 0.01979 0.46739 0.03000
H 	H 	0.03446 0.08593 0.46163 0.05000
Cu	Cu	0.63649 0.24308 0.99698 0.92700
Cu	Cu	0.67791 0.24353 0.93012 0.87000
Cu	Cu	0.66854 0.32948 0.95658 0.89700
Cu	Cu	0.63872 0.34443 0.01847 0.89400
C 	C 	0.65422 0.28462 0.06275 0.28600
O 	O 	0.55792 0.21231 0.99646 -0.36400
C 	C 	0.64997 0.29200 0.88770 0.28700
O 	O 	0.68101 0.32735 0.00027 -0.64000
O 	O 	0.62982 0.24955 0.95216 -0.64100
O 	O 	0.66869 0.20299 0.99472 -0.37600
O 	O 	0.62975 0.30660 0.05479 -0.38400
C 	C 	0.53739 0.23583 0.98503 0.30200
O 	O 	0.56944 0.28631 0.98161 -0.39400
O 	O 	0.65447 0.25094 0.04166 -0.36000
C 	C 	0.71407 0.22307 0.98441 0.30900
O 	O 	0.66835 0.33253 0.91131 -0.38700
O 	O 	0.64448 0.24770 0.89244 -0.42100
H 	H 	0.59237 0.22814 0.94016 0.17200
Cu	Cu	0.73158 0.34368 0.45826 0.92800
Cu	Cu	0.72933 0.29884 0.52405 0.87000
Cu	Cu	0.64514 0.31092 0.49852 0.89700
Cu	Cu	0.63188 0.34395 0.43760 0.89400
C 	C 	0.69332 0.33184 0.39266 0.28700
C 	C 	0.68166 0.32658 0.56721 0.28700
O 	O 	0.64760 0.29994 0.45475 -0.64100
O 	O 	0.72481 0.34878 0.50309 -0.64100
O 	O 	0.67061 0.35521 0.40145 -0.38600
O 	O 	0.56731 0.27024 0.49102 -0.38400
C 	C 	0.53831 0.27468 0.46899 0.30800
O 	O 	0.69000 0.41178 0.47526 -0.39400
O 	O 	0.56099 0.31201 0.45132 -0.39500
O 	O 	0.72388 0.32726 0.41350 -0.36100
O 	O 	0.64154 0.30949 0.54365 -0.38700
O 	O 	0.72546 0.33130 0.56228 -0.42100
H 	H 	0.62459 0.26158 0.44398 0.16300
C 	C 	0.64216 0.29929 0.85500 -0.08900
C 	C 	0.60752 0.25394 0.83077 0.01200
C 	C 	0.60626 0.26012 0.79931 -0.06700
C 	C 	0.63939 0.31168 0.79175 0.02500
C 	C 	0.67158 0.35731 0.81595 -0.06600
C 	C 	0.67295 0.35120 0.84745 0.01200
C 	C 	0.64446 0.31731 0.75871 -0.00100
C 	C 	0.66866 0.29758 0.74270 -0.03900
C 	C 	0.67435 0.30352 0.71156 -0.03900
C 	C 	0.65588 0.32925 0.69611 -0.00100
C 	C 	0.63150 0.34888 0.71205 -0.03900
C 	C 	0.62594 0.34306 0.74330 -0.03900
C 	C 	0.66174 0.33509 0.66318 0.02500
C 	C 	0.61621 0.30378 0.63891 -0.06600
C 	C 	0.62243 0.30312 0.60742 0.01200
C 	C 	0.67435 0.33374 0.59996 -0.08900
C 	C 	0.71964 0.36751 0.62430 0.01200
C 	C 	0.71335 0.36806 0.65575 -0.06800
H 	H 	0.58258 0.21378 0.83626 0.03000
H 	H 	0.58072 0.22472 0.78077 0.04400
H 	H 	0.68328 0.27787 0.75447 0.03600
H 	H 	0.69300 0.28805 0.69938 0.03600
H 	H 	0.57617 0.27845 0.64444 0.04600
H 	H 	0.58707 0.27716 0.58894 0.03700
C 	C 	0.66931 0.28721 0.09654 -0.08400
C 	C 	0.66228 0.24237 0.10720 0.01600
C 	C 	0.67164 0.24325 0.13950 -0.06500
C 	C 	0.68816 0.28893 0.16142 0.02600
C 	C 	0.69696 0.33437 0.15074 -0.06600
C 	C 	0.68773 0.33357 0.11849 0.01200
C 	C 	0.69305 0.28810 0.19548 -0.00000
C 	C 	0.64743 0.25097 0.20768 -0.03800
C 	C 	0.65006 0.25504 0.24025 -0.03800
C 	C 	0.69824 0.29634 0.26088 -0.00000
C 	C 	0.74455 0.33179 0.24872 -0.03800
C 	C 	0.74202 0.32761 0.21615 -0.03900
C 	C 	0.69861 0.30612 0.29482 0.02600
C 	C 	0.69548 0.27041 0.31372 -0.06500
C 	C 	0.69422 0.27902 0.34577 0.01200
C 	C 	0.69563 0.32317 0.35905 -0.08400
C 	C 	0.69910 0.35901 0.34008 0.01400
C 	C 	0.70064 0.35053 0.30815 -0.06600
H 	H 	0.64816 0.20633 0.09056 0.04100
H 	H 	0.66512 0.20812 0.14751 0.04700
H 	H 	0.60947 0.22025 0.19195 0.03900
H 	H 	0.61414 0.22740 0.24945 0.03800
H 	H 	0.69385 0.23596 0.30359 0.04600
H 	H 	0.69149 0.25107 0.36015 0.03300
H 	H 	0.97754 0.09887 0.50690 0.03600
C 	C 	0.09663 0.05092 0.46642 -0.00400
C 	C 	0.13469 0.09573 0.49021 -0.03600
C 	C 	0.18986 0.12396 0.48995 -0.04200
C 	C 	0.20739 0.10759 0.46589 0.00700
C 	C 	0.16931 0.06314 0.44191 -0.04200
C 	C 	0.11415 0.03492 0.44217 -0.03600
C 	C 	0.26560 0.13660 0.46601 0.00900
C 	C 	0.28957 0.10988 0.46936 -0.04400
C 	C 	0.34487 0.13753 0.46974 -0.03100
C 	C 	0.37651 0.19202 0.46679 -0.01000
C 	C 	0.35264 0.21873 0.46336 -0.03100
C 	C 	0.29735 0.19113 0.46297 -0.04400
C 	C 	0.43354 0.22067 0.46752 0.04500
C 	C 	0.48135 0.24506 0.46817 -0.10900
H 	H 	0.12153 0.10826 0.50907 0.03700
H 	H 	0.21899 0.15818 0.50859 0.03900
H 	H 	0.18247 0.05044 0.42313 0.03900
H 	H 	0.26542 0.06784 0.47184 0.04000
H 	H 	0.36310 0.11666 0.47242 0.03700
H 	H 	0.37689 0.26086 0.46104 0.03800
H 	H 	0.27916 0.21203 0.46025 0.04000
H 	H 	0.95732 0.07374 0.95399 0.03600
C 	C 	0.10593 0.05378 0.99101 -0.00500
C 	C 	0.12371 0.07335 0.96356 -0.03600
C 	C 	0.17713 0.09640 0.96038 -0.04200
C 	C 	0.21312 0.10006 0.98465 0.00600
C 	C 	0.19571 0.08193 0.01247 -0.04100
C 	C 	0.14234 0.05886 0.01562 -0.03500
C 	C 	0.26871 0.12188 0.98076 0.00900
C 	C 	0.28623 0.08900 0.98111 -0.04400
C 	C 	0.33995 0.11068 0.97961 -0.03100
C 	C 	0.37642 0.16525 0.97764 -0.01000
C 	C 	0.35864 0.19776 0.97640 -0.03100
C 	C 	0.30494 0.17616 0.97794 -0.04400
C 	C 	0.43284 0.18892 0.97931 0.04500
C 	C 	0.48040 0.20967 0.98147 -0.11200
H 	H 	0.09584 0.06952 0.94442 0.03700
H 	H 	0.19027 0.11048 0.93887 0.03900
H 	H 	0.22339 0.08519 0.03148 0.04000
H 	H 	0.25843 0.04692 0.98300 0.04000
H 	H 	0.35341 0.08530 0.98055 0.03800
H 	H 	0.38664 0.24000 0.97488 0.03700
H 	H 	0.29179 0.20183 0.97760 0.04000
C 	C 	0.96979 0.02246 0.99731 0.03000
C 	C 	0.95696 0.01464 0.46577 0.02900
O 	O 	0.72861 0.25753 0.96525 -0.44400
H 	H 	0.71958 0.35001 0.01050 0.16300
O 	O 	0.76347 0.42287 0.46003 -0.36400
O 	O 	0.77062 0.31034 0.45957 -0.37500
O 	O 	0.71502 0.24922 0.48814 -0.44400
C 	C 	0.74993 0.26431 0.46928 0.30900
H 	H 	0.74655 0.38595 0.51561 0.17200
C 	C 	0.92968 0.04086 0.46360 -0.00300
C 	C 	0.94603 0.08499 0.48682 -0.03700
C 	C 	0.92195 0.11147 0.48409 -0.04200
C 	C 	0.88130 0.09407 0.45810 0.00600
C 	C 	0.86449 0.04955 0.43505 -0.04200
C 	C 	0.88860 0.02304 0.43779 -0.03700
C 	C 	0.85623 0.12237 0.45518 0.00900
C 	C 	0.80136 0.09543 0.45657 -0.04500
C 	C 	0.77873 0.12356 0.45656 -0.03100
C 	C 	0.81079 0.17874 0.45513 -0.01300
C 	C 	0.86514 0.20527 0.45272 -0.03100
C 	C 	0.88781 0.17719 0.45270 -0.04500
C 	C 	0.78921 0.20908 0.45897 0.04600
C 	C 	0.77126 0.23442 0.46312 -0.12200
H 	H 	0.93483 0.14548 0.50215 0.03800
H 	H 	0.83311 0.03580 0.41493 0.03900
H 	H 	0.77663 0.05311 0.45844 0.03900
H 	H 	0.73667 0.10278 0.45843 0.03600
H 	H 	0.89015 0.24791 0.45156 0.03700
H 	H 	0.93009 0.19821 0.45134 0.04000
C 	C 	0.94465 0.05083 0.99958 -0.00500
C 	C 	0.94065 0.07471 0.97464 -0.03600
C 	C 	0.91409 0.09889 0.97602 -0.04400
C 	C 	0.89132 0.09939 0.00235 0.00800
C 	C 	0.89613 0.07634 0.02754 -0.04300
C 	C 	0.92272 0.05219 0.02617 -0.03500
C 	C 	0.86096 0.12249 0.00308 0.00800
C 	C 	0.80533 0.08904 0.00324 -0.04500
C 	C 	0.77584 0.11019 0.00182 -0.03100
C 	C 	0.80177 0.16487 0.00028 -0.01200
C 	C 	0.85755 0.19864 0.00090 -0.03000
C 	C 	0.88709 0.17755 0.00232 -0.04500
C 	C 	0.77057 0.18539 0.99566 0.04500
C 	C 	0.74462 0.20256 0.99101 -0.12100
H 	H 	0.91047 0.11648 0.95643 0.03800
H 	H 	0.87897 0.07683 0.04804 0.04000
H 	H 	0.78479 0.04649 0.00381 0.04000
H 	H 	0.73272 0.08383 0.00131 0.03700
H 	H 	0.87787 0.24097 0.99972 0.03500
H 	H 	0.93007 0.20378 0.00241 0.03900
C 	C 	0.01720 0.96819 0.99270 -0.07500
H 	H 	0.03546 0.94714 0.99073 0.05000
C 	C 	0.00966 0.96575 0.47116 -0.07400
H 	H 	0.03006 0.94685 0.47327 0.05000
O 	O 	0.71007 0.40754 0.96391 -0.38400
C 	C 	0.70657 0.43714 0.98611 0.30700
O 	O 	0.67022 0.41505 0.00439 -0.39500
C 	C 	0.74056 0.44366 0.47206 0.30100
H 	H 	0.08503 0.00052 0.42362 0.03800
H 	H 	0.97572 0.88942 0.03863 0.03700
H 	H 	0.12899 0.04404 0.03694 0.03700
C 	C 	0.93883 0.96665 0.99709 -0.07500
C 	C 	0.96252 0.93950 0.99483 0.03000
H 	H 	0.89647 0.94444 0.99863 0.04900
C 	C 	0.95445 0.93598 0.47216 0.03000
C 	C 	0.92808 0.96043 0.46940 -0.07500
H 	H 	0.88543 0.93754 0.47032 0.04900
H 	H 	0.69705 0.39731 0.81033 0.04600
H 	H 	0.69957 0.38662 0.86585 0.03700
H 	H 	0.61708 0.36875 0.70029 0.03800
H 	H 	0.60723 0.35845 0.75549 0.03800
H 	H 	0.75982 0.39230 0.61890 0.02900
H 	H 	0.74868 0.39292 0.67436 0.04400
H 	H 	0.70976 0.36985 0.16746 0.04500
H 	H 	0.69407 0.36870 0.11058 0.02300
H 	H 	0.78204 0.36356 0.26449 0.03900
H 	H 	0.77763 0.35606 0.20697 0.03800
H 	H 	0.70092 0.39362 0.35010 0.03500
H 	H 	0.70300 0.37825 0.29370 0.04600
C 	C 	0.92423 0.87892 0.47563 -0.00400
C 	C 	0.88578 0.83767 0.45030 -0.03600
C 	C 	0.86204 0.78356 0.45213 -0.04200
C 	C 	0.87654 0.77030 0.47933 0.00600
C 	C 	0.91342 0.81142 0.50512 -0.04200
C 	C 	0.93719 0.86553 0.50328 -0.03600
C 	C 	0.85555 0.71379 0.48007 0.00900
C 	C 	0.82103 0.68571 0.50085 -0.04400
C 	C 	0.80013 0.63165 0.50092 -0.03200
C 	C 	0.81378 0.60549 0.48031 -0.01000
C 	C 	0.84901 0.63380 0.45996 -0.03100
C 	C 	0.86986 0.68777 0.45983 -0.04400
C 	C 	0.78882 0.54869 0.47847 0.04500
C 	C 	0.76727 0.50087 0.47606 -0.11200
H 	H 	0.87546 0.84762 0.42888 0.03700
H 	H 	0.83322 0.75202 0.43220 0.03900
H 	H 	0.92468 0.80155 0.52626 0.03900
H 	H 	0.96663 0.89713 0.52303 0.03700
H 	H 	0.80989 0.70552 0.51662 0.04000
H 	H 	0.77279 0.60996 0.51666 0.03700
H 	H 	0.85967 0.61380 0.44394 0.03900
H 	H 	0.89686 0.70928 0.44391 0.04000
H 	H 	0.87583 0.98910 0.41970 0.03800
C 	C 	0.93007 0.88091 0.99460 -0.00500
C 	C 	0.94313 0.86143 0.01896 -0.03500
C 	C 	0.91450 0.80578 0.01780 -0.04100
C 	C 	0.87259 0.76915 0.99227 0.00600
C 	C 	0.85895 0.78863 0.96816 -0.04200
C 	C 	0.88758 0.84431 0.96933 -0.03600
C 	C 	0.84349 0.71047 0.99060 0.00900
C 	C 	0.78810 0.67755 0.99138 -0.04500
C 	C 	0.76065 0.62198 0.99008 -0.03100
C 	C 	0.78838 0.59899 0.98799 -0.01000
C 	C 	0.84364 0.63173 0.98708 -0.03100
C 	C 	0.87114 0.68731 0.98836 -0.04500
C 	C 	0.76020 0.54190 0.98716 0.04500
C 	C 	0.73609 0.49408 0.98659 -0.10900
H 	H 	0.92501 0.79110 0.03664 0.03900
H 	H 	0.82666 0.76064 0.94836 0.03900
H 	H 	0.87734 0.85900 0.95037 0.03700
H 	H 	0.76644 0.69508 0.99319 0.04000
H 	H 	0.71791 0.59687 0.99081 0.03800
H 	H 	0.86531 0.61419 0.98544 0.03700
H 	H 	0.91386 0.71237 0.98759 0.03900
H 	H 	0.92590 0.03415 0.04563 0.03700
