data_crystal

_cell_length_a 18.68040
_cell_length_b 18.83526
_cell_length_c 40.02639
_cell_angle_alpha 95.43191
_cell_angle_beta  95.43187
_cell_angle_gamma 126.40962

_symmetry_space_group_name_	'P 1'
_symmetry_space_group_name_H-M	'P 1'

loop_
_symmetry_equiv_pos_as_xyz
  x,y,z

loop_
_atom_site_label
_atom_site_type_symbol
_atom_site_fract_x
_atom_site_fract_y
_atom_site_fract_z
_atom_site_charge
C 	C 	0.90446 0.00503 0.96520 0.21600
C 	C 	0.99762 0.06037 0.96503 -0.11700
C 	C 	0.04541 0.02475 0.96573 0.21800
C 	C 	0.00020 0.93347 0.96618 -0.13000
C 	C 	0.90702 0.87718 0.96601 0.22200
C 	C 	0.85884 0.91300 0.96567 -0.12000
H 	H 	0.03319 0.13145 0.96510 0.12800
H 	H 	0.03770 0.90633 0.96695 0.13000
H 	H 	0.78693 0.86997 0.96604 0.13500
C 	C 	0.95155 0.03138 0.50334 0.23000
C 	C 	0.04424 0.07628 0.50315 -0.13100
C 	C 	0.07990 0.02827 0.50286 0.22800
C 	C 	0.02292 0.93586 0.50262 -0.13700
C 	C 	0.93090 0.89130 0.50298 0.23500
C 	C 	0.89525 0.93895 0.50345 -0.13300
H 	H 	0.08797 0.14769 0.50294 0.13900
H 	H 	0.05014 0.89853 0.50197 0.13300
H 	H 	0.82359 0.90397 0.50328 0.13600
Cu	Cu	0.75248 0.34787 0.96428 0.93400
Cu	Cu	0.74153 0.28168 0.03779 0.90000
Cu	Cu	0.60880 0.30444 0.00710 0.91100
Cu	Cu	0.58649 0.34412 0.93795 0.91500
C 	C 	0.69316 0.32268 0.89205 0.29600
O 	O 	0.80671 0.47903 0.96295 -0.32600
C 	C 	0.66582 0.33608 0.08254 0.29200
O 	O 	0.61170 0.27558 0.96014 -0.63800
O 	O 	0.74137 0.36422 0.01263 -0.63400
O 	O 	0.81179 0.28768 0.96866 -0.33100
O 	O 	0.71269 0.19384 0.00044 -0.39400
O 	O 	0.65379 0.36012 0.89978 -0.33900
O 	O 	0.47881 0.23811 0.99906 -0.35100
C 	C 	0.42970 0.23808 0.97301 0.40100
C 	C 	0.76641 0.51344 0.97318 0.38500
O 	O 	0.68257 0.45977 0.97764 -0.36800
O 	O 	0.46721 0.29339 0.95135 -0.34800
O 	O 	0.73938 0.31360 0.91609 -0.31900
C 	C 	0.77222 0.21292 0.98095 0.38300
O 	O 	0.60435 0.31736 0.05638 -0.33900
O 	O 	0.73787 0.34179 0.07785 -0.38200
H 	H 	0.57214 0.21054 0.95032 0.19200
H 	H 	0.77972 0.42711 0.02518 0.20500
Cu	Cu	0.61693 0.19279 0.50594 0.93600
Cu	Cu	0.68093 0.20263 0.43193 0.90100
Cu	Cu	0.65824 0.33472 0.46310 0.91000
Cu	Cu	0.61917 0.35630 0.53260 0.91700
C 	C 	0.64936 0.25615 0.57814 0.31200
O 	O 	0.48528 0.13778 0.50791 -0.32400
C 	C 	0.62438 0.27721 0.38769 0.31200
O 	O 	0.68858 0.33240 0.50999 -0.63600
O 	O 	0.59881 0.20336 0.45763 -0.63600
O 	O 	0.67603 0.13311 0.50091 -0.33000
O 	O 	0.77021 0.23061 0.46884 -0.39600
O 	O 	0.60759 0.29146 0.57094 -0.33300
O 	O 	0.72399 0.46347 0.47120 -0.34300
C 	C 	0.72233 0.51142 0.49702 0.39800
C 	C 	0.44921 0.17634 0.49763 0.38800
O 	O 	0.50196 0.25969 0.49330 -0.36500
O 	O 	0.66714 0.47350 0.51880 -0.34500
O 	O 	0.65291 0.20582 0.55406 -0.31000
C 	C 	0.75095 0.17175 0.48843 0.38900
O 	O 	0.64556 0.33924 0.41380 -0.33400
O 	O 	0.61923 0.20606 0.39214 -0.37800
H 	H 	0.75428 0.37214 0.51963 0.19400
H 	H 	0.53512 0.16495 0.44535 0.20500
C 	C 	0.70342 0.31055 0.85630 -0.04800
C 	C 	0.71391 0.37123 0.83562 0.02400
C 	C 	0.71892 0.35754 0.80128 -0.04300
C 	C 	0.71371 0.28318 0.78718 0.03600
C 	C 	0.70520 0.22344 0.80796 -0.04100
C 	C 	0.70042 0.23727 0.84244 0.02300
C 	C 	0.71236 0.26565 0.75027 0.01900
C 	C 	0.63330 0.19082 0.72869 -0.02400
C 	C 	0.62575 0.18287 0.69319 -0.01500
C 	C 	0.69715 0.24954 0.67904 0.01900
C 	C 	0.77816 0.32146 0.70053 -0.01600
C 	C 	0.78587 0.32942 0.73604 -0.02400
C 	C 	0.68292 0.25041 0.64307 0.07400
C 	C 	0.66893 0.25242 0.61324 -0.04500
H 	H 	0.71789 0.42890 0.84613 0.08700
H 	H 	0.72537 0.40395 0.78545 0.07600
H 	H 	0.70137 0.16595 0.79734 0.08000
H 	H 	0.69264 0.19015 0.85816 0.08300
H 	H 	0.57629 0.14102 0.73938 0.06900
H 	H 	0.56304 0.12682 0.67674 0.07800
H 	H 	0.83388 0.37301 0.68981 0.07300
H 	H 	0.84757 0.38693 0.75247 0.07100
C 	C 	0.65174 0.34745 0.11782 -0.05800
C 	C 	0.56359 0.30290 0.12461 0.02200
C 	C 	0.54961 0.30212 0.15837 -0.04500
C 	C 	0.62352 0.34577 0.18564 0.03600
C 	C 	0.71183 0.39447 0.17891 -0.04900
C 	C 	0.72591 0.39565 0.14521 0.02400
C 	C 	0.60831 0.33365 0.22094 0.01600
C 	C 	0.64922 0.40875 0.24722 -0.02500
C 	C 	0.64484 0.39773 0.28126 -0.01800
C 	C 	0.59913 0.31163 0.28921 0.01400
C 	C 	0.55478 0.23636 0.26289 -0.01900
C 	C 	0.55939 0.24725 0.22889 -0.02700
C 	C 	0.60584 0.30109 0.32434 0.07000
C 	C 	0.61321 0.29091 0.35345 -0.06200
H 	H 	0.50570 0.26606 0.10381 0.08100
H 	H 	0.48122 0.26538 0.16329 0.07600
H 	H 	0.76942 0.42890 0.19976 0.06900
H 	H 	0.79438 0.43205 0.14041 0.06200
H 	H 	0.68638 0.47567 0.24136 0.06800
H 	H 	0.67909 0.45626 0.30145 0.07600
H 	H 	0.51920 0.16958 0.26883 0.06600
H 	H 	0.52761 0.18882 0.20886 0.06200
C 	C 	0.81810 0.73468 0.47102 0.25300
C 	C 	0.87159 0.79409 0.50205 -0.15000
C 	C 	0.87425 0.76042 0.53156 0.25700
C 	C 	0.82534 0.66796 0.52990 0.29100
C 	C 	0.77332 0.60848 0.49869 -0.20300
C 	C 	0.76901 0.64217 0.46932 0.29400
F 	F 	0.71650 0.58515 0.43927 -0.37400
F 	F 	0.81511 0.76688 0.44239 -0.36600
F 	F 	0.83008 0.63614 0.55842 -0.38400
F 	F 	0.92567 0.81759 0.56169 -0.35600
C 	C 	0.89456 0.09807 0.46938 0.25400
C 	C 	0.91173 0.07928 0.50096 -0.14600
C 	C 	0.87944 0.09476 0.52891 0.25200
C 	C 	0.82770 0.12584 0.52498 0.29400
C 	C 	0.80780 0.14166 0.49303 -0.20700
C 	C 	0.84259 0.12873 0.46536 0.29000
F 	F 	0.82307 0.14255 0.43420 -0.40400
F 	F 	0.92498 0.08282 0.44217 -0.35800
F 	F 	0.79720 0.14086 0.55222 -0.37500
F 	F 	0.89657 0.07773 0.55968 -0.36400
C 	C 	0.21032 0.09921 0.47239 0.25200
C 	C 	0.17679 0.07397 0.50253 -0.14700
C 	C 	0.23242 0.08019 0.53070 0.25100
C 	C 	0.32005 0.10954 0.52852 0.29000
C 	C 	0.35338 0.13409 0.49829 -0.20700
C 	C 	0.29837 0.12943 0.47031 0.29100
F 	F 	0.33018 0.15381 0.44107 -0.38400
F 	F 	0.15672 0.09220 0.44482 -0.36000
F 	F 	0.37360 0.11664 0.55614 -0.37900
F 	F 	0.20087 0.05652 0.56005 -0.36200
C 	C 	0.82814 0.63963 0.94124 0.28900
C 	C 	0.80655 0.60797 0.97194 -0.20500
C 	C 	0.81075 0.66263 0.99975 0.28700
C 	C 	0.83810 0.74881 0.99714 0.24800
C 	C 	0.86090 0.78093 0.96660 -0.14200
C 	C 	0.85457 0.72538 0.93853 0.24900
F 	F 	0.87589 0.75540 0.90880 -0.36300
F 	F 	0.82110 0.58633 0.91373 -0.38700
F 	F 	0.84507 0.80216 0.02460 -0.35600
F 	F 	0.78876 0.63234 0.02939 -0.38100
C 	C 	0.81579 0.13413 0.94411 0.29700
C 	C 	0.80176 0.15563 0.97623 -0.21500
C 	C 	0.81297 0.11960 0.00374 0.30300
C 	C 	0.83985 0.06452 0.99937 0.23800
C 	C 	0.85691 0.04557 0.96762 -0.13600
C 	C 	0.84322 0.07933 0.93983 0.24500
F 	F 	0.85882 0.06089 0.90892 -0.36600
F 	F 	0.80234 0.16579 0.91701 -0.38500
F 	F 	0.85359 0.03304 0.02647 -0.35300
F 	F 	0.80088 0.14054 0.03506 -0.40700
C 	C 	0.20269 0.13691 0.99832 0.23600
C 	C 	0.14370 0.08362 0.96714 -0.14200
C 	C 	0.17879 0.08228 0.93782 0.25000
C 	C 	0.27232 0.13286 0.93975 0.29500
C 	C 	0.33146 0.18516 0.97106 -0.21500
C 	C 	0.29626 0.18760 0.00029 0.30900
F 	F 	0.35280 0.23997 0.03048 -0.38000
F 	F 	0.16912 0.13852 0.02679 -0.36300
F 	F 	0.30558 0.12966 0.91138 -0.38800
F 	F 	0.12203 0.03095 0.90757 -0.35900
