data_crystal

_cell_length_a 26.16136
_cell_length_b 26.54877
_cell_length_c 30.73570
_cell_angle_alpha 95.44768
_cell_angle_beta  95.44720
_cell_angle_gamma 125.93186

_symmetry_space_group_name_	'P 1'
_symmetry_space_group_name_H-M	'P 1'

loop_
_symmetry_equiv_pos_as_xyz
  x,y,z

loop_
_atom_site_label
_atom_site_type_symbol
_atom_site_fract_x
_atom_site_fract_y
_atom_site_fract_z
_atom_site_charge
C 	C 	0.95841 0.04169 0.98902 0.05300
C 	C 	0.02307 0.06794 0.98864 -0.09400
C 	C 	0.04444 0.03047 0.99230 0.05200
C 	C 	0.00029 0.96626 0.99425 -0.09800
C 	C 	0.93510 0.93927 0.99166 0.04900
C 	C 	0.91432 0.97710 0.98963 -0.09800
H 	H 	0.05657 0.11722 0.98596 0.05100
H 	H 	0.01638 0.93696 0.99659 0.05200
H 	H 	0.86396 0.95636 0.98852 0.05100
C 	C 	0.95520 0.99722 0.46005 0.03400
C 	C 	0.02253 0.03532 0.46695 -0.08500
C 	C 	0.05470 0.00822 0.47269 0.04800
C 	C 	0.01966 0.94324 0.47280 -0.09500
C 	C 	0.95237 0.90486 0.46585 0.04400
C 	C 	0.92010 0.93195 0.45976 -0.08900
H 	H 	0.04969 0.08565 0.46694 0.04800
H 	H 	0.04461 0.92230 0.47721 0.05000
H 	H 	0.86804 0.90233 0.45420 0.04800
Cu	Cu	0.64012 0.26647 0.00359 0.92100
Cu	Cu	0.66873 0.24153 0.90537 0.87100
Cu	Cu	0.64920 0.34985 0.93791 0.91000
Cu	Cu	0.62401 0.37513 0.02905 0.89100
C 	C 	0.64265 0.30820 0.09403 0.28200
O 	O 	0.54496 0.21375 0.00569 -0.38000
C 	C 	0.66469 0.32176 0.85185 0.28400
O 	O 	0.67600 0.36079 0.00047 -0.64100
O 	O 	0.62067 0.26155 0.93852 -0.63100
O 	O 	0.70059 0.24307 0.00657 -0.38300
O 	O 	0.65882 0.18059 0.93784 -0.43300
O 	O 	0.64438 0.35759 0.08726 -0.38900
O 	O 	0.68372 0.43723 0.93935 -0.38300
C 	C 	0.67891 0.47101 0.97068 0.29700
C 	C 	0.51099 0.23450 0.99649 0.29400
O 	O 	0.53906 0.29110 0.98672 -0.39800
O 	O 	0.63814 0.44387 0.99797 -0.40000
O 	O 	0.66447 0.28590 0.06727 -0.36500
C 	C 	0.69441 0.19940 0.97733 0.30300
O 	O 	0.63335 0.33679 0.87367 -0.38200
O 	O 	0.70242 0.31138 0.87366 -0.43400
H 	H 	0.72274 0.39355 0.01112 0.15700
H 	H 	0.57413 0.23052 0.92625 0.15600
Cu	Cu	0.75010 0.33136 0.44121 0.92600
Cu	Cu	0.76441 0.28736 0.53486 0.86700
Cu	Cu	0.65971 0.29721 0.50762 0.89400
Cu	Cu	0.62500 0.32268 0.42142 0.89200
C 	C 	0.68925 0.30830 0.35112 0.28200
O 	O 	0.78171 0.42223 0.44129 -0.36500
C 	C 	0.71983 0.32564 0.60255 0.28100
O 	O 	0.65180 0.27701 0.44459 -0.64000
O 	O 	0.75299 0.34258 0.50609 -0.64300
O 	O 	0.79876 0.29501 0.43907 -0.37800
O 	O 	0.74136 0.22648 0.48425 -0.44800
O 	O 	0.66361 0.33522 0.36667 -0.38600
O 	O 	0.56783 0.24800 0.50515 -0.39000
C 	C 	0.52787 0.25311 0.47984 0.30000
C 	C 	0.75498 0.44510 0.46111 0.28900
O 	O 	0.69776 0.40602 0.47073 -0.40100
O 	O 	0.54329 0.28150 0.44500 -0.40200
O 	O 	0.73093 0.30667 0.37765 -0.36500
C 	C 	0.77793 0.24256 0.45412 0.29600
O 	O 	0.66798 0.30476 0.57299 -0.38800
O 	O 	0.76882 0.32912 0.59065 -0.42400
H 	H 	0.62425 0.23112 0.43198 0.16200
H 	H 	0.78039 0.38700 0.52224 0.16800
C 	C 	0.72068 0.34006 0.65047 -0.07600
C 	C 	0.77937 0.37678 0.68085 -0.00000
C 	C 	0.78023 0.38333 0.72661 -0.06000
C 	C 	0.72247 0.35374 0.74266 0.00800
C 	C 	0.66343 0.31981 0.71238 0.01200
C 	C 	0.66277 0.31318 0.66636 -0.02500
C 	C 	0.60572 0.29127 0.72856 -0.06300
C 	C 	0.60646 0.29420 0.77433 0.00200
C 	C 	0.66476 0.32521 0.80435 -0.08400
C 	C 	0.72282 0.35613 0.78852 -0.01900
H 	H 	0.82440 0.39929 0.66902 0.02900
H 	H 	0.82584 0.41057 0.74955 0.03600
H 	H 	0.61735 0.28546 0.64313 0.04400
H 	H 	0.56021 0.26587 0.70571 0.03900
H 	H 	0.56151 0.27068 0.78636 0.02400
H 	H 	0.76798 0.38109 0.81179 0.03600
C 	C 	0.68368 0.29483 0.30239 -0.07200
C 	C 	0.73467 0.30235 0.28427 0.00400
C 	C 	0.73379 0.29996 0.23849 -0.05800
C 	C 	0.68229 0.29069 0.21039 0.01200
C 	C 	0.62945 0.27988 0.22814 0.01200
C 	C 	0.62986 0.28070 0.27389 -0.02200
C 	C 	0.57857 0.27195 0.20034 -0.05900
C 	C 	0.58181 0.27848 0.15593 0.00100
C 	C 	0.63507 0.29130 0.13841 -0.07200
C 	C 	0.68439 0.29539 0.16530 -0.01800
H 	H 	0.77604 0.31232 0.30576 0.04100
H 	H 	0.77414 0.30736 0.22515 0.04100
H 	H 	0.58958 0.27301 0.28759 0.03100
H 	H 	0.53752 0.26300 0.21351 0.03700
H 	H 	0.54373 0.27547 0.13542 0.02000
H 	H 	0.72565 0.30541 0.15181 0.04400
C 	C 	0.88049 0.73249 0.42651 -0.07300
C 	C 	0.86076 0.70771 0.46502 -0.01300
C 	C 	0.86703 0.74682 0.50295 0.04100
C 	C 	0.89493 0.81080 0.50215 -0.06200
C 	C 	0.91577 0.83586 0.46390 -0.03200
C 	C 	0.90677 0.79600 0.42532 0.05100
C 	C 	0.83295 0.64037 0.46520 0.00900
C 	C 	0.84551 0.72094 0.54456 -0.17900
H 	H 	0.90169 0.84149 0.53162 0.04000
C 	C 	0.92738 0.82155 0.38345 -0.18300
H 	H 	0.87521 0.70221 0.39739 0.04500
C 	C 	0.76737 0.59186 0.44759 0.01900
C 	C 	0.74278 0.52836 0.44661 -0.01200
C 	C 	0.78240 0.51264 0.46373 -0.11100
C 	C 	0.84757 0.56137 0.48282 0.09600
C 	C 	0.87263 0.62484 0.48248 -0.09600
C 	C 	0.72382 0.60752 0.42895 -0.16800
H 	H 	0.69281 0.49099 0.43203 0.02500
C 	C 	0.89060 0.54616 0.50333 -0.20000
H 	H 	0.92295 0.66228 0.49600 0.04900
H 	H 	0.90731 0.78275 0.35442 0.05800
H 	H 	0.98060 0.85200 0.38795 0.06000
H 	H 	0.91014 0.84978 0.37557 0.06100
H 	H 	0.87588 0.70796 0.55910 0.06200
H 	H 	0.79451 0.67835 0.53666 0.06200
H 	H 	0.84934 0.75615 0.57006 0.05800
H 	H 	0.67288 0.56485 0.41994 0.05500
H 	H 	0.73873 0.62783 0.39857 0.06000
H 	H 	0.72629 0.64229 0.45396 0.05900
H 	H 	0.90300 0.52598 0.47671 0.07300
H 	H 	0.86627 0.51171 0.52570 0.06000
H 	H 	0.93600 0.58915 0.52358 0.06100
C 	C 	0.78276 0.10398 0.42576 -0.09900
C 	C 	0.84864 0.13360 0.43848 0.01000
C 	C 	0.89224 0.20039 0.44898 0.01700
C 	C 	0.86857 0.23618 0.45096 -0.01700
C 	C 	0.80222 0.20614 0.44175 -0.11900
C 	C 	0.75927 0.13989 0.42644 0.09900
C 	C 	0.87123 0.09421 0.44329 -0.01500
C 	C 	0.96364 0.23342 0.45999 -0.16800
H 	H 	0.90162 0.28717 0.46163 0.02700
C 	C 	0.68822 0.10698 0.41250 -0.20300
H 	H 	0.74957 0.05281 0.41649 0.05000
C 	C 	0.87612 0.07603 0.48433 0.04300
C 	C 	0.90174 0.04241 0.48888 -0.06500
C 	C 	0.92150 0.02591 0.45288 -0.02500
C 	C 	0.91314 0.04090 0.41113 0.04800
C 	C 	0.88868 0.07561 0.40681 -0.07100
C 	C 	0.85508 0.09327 0.52346 -0.17900
H 	H 	0.90749 0.03012 0.52070 0.04200
C 	C 	0.93256 0.02221 0.37166 -0.17600
H 	H 	0.88410 0.08897 0.37523 0.04400
H 	H 	0.66572 0.09973 0.44242 0.06800
H 	H 	0.66441 0.06009 0.39085 0.06300
H 	H 	0.67956 0.13551 0.39329 0.07000
H 	H 	0.97894 0.21690 0.43316 0.06100
H 	H 	0.97588 0.22311 0.49188 0.05700
H 	H 	0.99137 0.28558 0.46332 0.05500
H 	H 	0.85969 0.07349 0.55258 0.05700
H 	H 	0.80391 0.07419 0.51434 0.06100
H 	H 	0.88512 0.14555 0.53365 0.05800
H 	H 	0.91344 0.02793 0.34018 0.05800
H 	H 	0.91350 0.97174 0.36818 0.05800
H 	H 	0.98576 0.05239 0.37609 0.05900
C 	C 	0.22027 0.09082 0.44327 -0.07200
C 	C 	0.25931 0.11725 0.48566 -0.01400
C 	C 	0.23128 0.10968 0.52390 0.04200
C 	C 	0.16426 0.07483 0.51908 -0.06200
C 	C 	0.12516 0.04745 0.47671 -0.03200
C 	C 	0.15328 0.05570 0.43846 0.05000
C 	C 	0.32969 0.15276 0.48961 0.00900
C 	C 	0.27258 0.13867 0.56975 -0.18000
H 	H 	0.14241 0.06851 0.54831 0.04100
C 	C 	0.11199 0.02674 0.39258 -0.17700
H 	H 	0.24212 0.09712 0.41403 0.04300
C 	C 	0.35770 0.12069 0.48777 0.01900
C 	C 	0.42343 0.15469 0.48643 -0.01300
C 	C 	0.46152 0.22022 0.48764 -0.11100
C 	C 	0.43444 0.25292 0.49298 0.09800
C 	C 	0.36833 0.21864 0.49282 -0.09700
C 	C 	0.31719 0.04997 0.48520 -0.16900
H 	H 	0.44452 0.12983 0.48302 0.03200
C 	C 	0.47531 0.32399 0.49765 -0.20200
H 	H 	0.34676 0.24316 0.49480 0.04900
H 	H 	0.14133 0.03788 0.36615 0.05700
H 	H 	0.08385 0.04533 0.38714 0.06000
H 	H 	0.07850 0.97443 0.38902 0.05700
H 	H 	0.30509 0.19105 0.57354 0.06300
H 	H 	0.30179 0.12117 0.57493 0.06200
H 	H 	0.24318 0.12644 0.59621 0.05900
H 	H 	0.34729 0.03328 0.48935 0.05600
H 	H 	0.28445 0.02557 0.45236 0.06000
H 	H 	0.28826 0.03629 0.51195 0.06000
H 	H 	0.45117 0.34320 0.51176 0.06300
H 	H 	0.48441 0.33720 0.46453 0.07000
H 	H 	0.52186 0.34661 0.52043 0.06800
C 	C 	0.83241 0.77677 0.02143 -0.07900
C 	C 	0.81048 0.73823 0.97939 -0.00900
C 	C 	0.82407 0.76570 0.94096 0.04100
C 	C 	0.86306 0.83177 0.94547 -0.06300
C 	C 	0.88801 0.87040 0.98769 -0.02900
C 	C 	0.87115 0.84288 0.02590 0.04600
C 	C 	0.77690 0.66953 0.97614 0.01000
C 	C 	0.79879 0.72482 0.89532 -0.18000
H 	H 	0.87541 0.85329 0.91620 0.04100
C 	C 	0.89618 0.88384 0.07148 -0.18200
H 	H 	0.82091 0.75528 0.05075 0.04300
C 	C 	0.81192 0.64470 0.98045 0.01800
C 	C 	0.77889 0.57933 0.97768 -0.01300
C 	C 	0.71162 0.53861 0.97036 -0.11400
C 	C 	0.67652 0.56319 0.96403 0.10200
C 	C 	0.70962 0.62880 0.96826 -0.09900
C 	C 	0.88442 0.68788 0.98880 -0.16100
H 	H 	0.80556 0.56014 0.98195 0.02800
C 	C 	0.60405 0.51999 0.95318 -0.20400
H 	H 	0.68304 0.64818 0.96478 0.05000
H 	H 	0.87481 0.85516 0.09754 0.05700
H 	H 	0.88407 0.91757 0.07219 0.05900
H 	H 	0.94917 0.91081 0.07988 0.05900
H 	H 	0.74559 0.69071 0.88972 0.06400
H 	H 	0.81933 0.69832 0.89230 0.06300
H 	H 	0.81163 0.75346 0.86864 0.05800
H 	H 	0.90445 0.66079 0.98917 0.05500
H 	H 	0.90330 0.72011 0.02150 0.05400
H 	H 	0.90173 0.71643 0.96221 0.05900
H 	H 	0.58499 0.54450 0.93974 0.06400
H 	H 	0.58462 0.50414 0.98374 0.07400
H 	H 	0.58634 0.47808 0.92753 0.07500
C 	C 	0.89690 0.13166 0.02994 -0.07900
C 	C 	0.86649 0.13104 0.98961 -0.00700
C 	C 	0.87572 0.11070 0.94893 0.04000
C 	C 	0.91041 0.08572 0.94925 -0.06200
C 	C 	0.93660 0.08179 0.98958 -0.02900
C 	C 	0.93256 0.10773 0.03025 0.04800
C 	C 	0.82283 0.14923 0.99021 0.00800
C 	C 	0.84650 0.11316 0.90520 -0.17800
H 	H 	0.91467 0.06679 0.91811 0.04100
C 	C 	0.96299 0.10656 0.07397 -0.18300
H 	H 	0.89107 0.14891 0.06109 0.04500
C 	C 	0.75667 0.10343 0.98978 0.01900
C 	C 	0.71542 0.12101 0.98676 -0.01100
C 	C 	0.73951 0.18365 0.98473 -0.11700
C 	C 	0.80604 0.22978 0.98625 0.08900
C 	C 	0.84728 0.21225 0.98972 -0.09400
C 	C 	0.72985 0.03574 0.99183 -0.16200
H 	H 	0.66439 0.08578 0.98546 0.03300
C 	C 	0.83313 0.29743 0.98367 -0.18600
H 	H 	0.89827 0.24735 0.99079 0.04900
H 	H 	0.96348 0.13639 0.10218 0.05900
H 	H 	0.01356 0.12516 0.07344 0.06000
H 	H 	0.93567 0.05724 0.08002 0.06100
H 	H 	0.86169 0.16192 0.90490 0.06000
H 	H 	0.79328 0.07999 0.90026 0.06000
H 	H 	0.86190 0.09975 0.87667 0.05700
H 	H 	0.67771 0.00635 0.99285 0.05700
H 	H 	0.75493 0.03402 0.02224 0.05700
H 	H 	0.73648 0.01448 0.96206 0.05900
H 	H 	0.88456 0.32578 0.98059 0.05800
H 	H 	0.82944 0.32003 0.01427 0.06500
H 	H 	0.80647 0.29901 0.95413 0.03600
C 	C 	0.22624 0.12999 0.02454 -0.07900
C 	C 	0.24016 0.10260 0.99098 -0.00700
C 	C 	0.18966 0.04992 0.95902 0.03800
C 	C 	0.12659 0.02992 0.95818 -0.05600
C 	C 	0.11240 0.05726 0.99170 -0.03000
C 	C 	0.16243 0.10592 0.02633 0.04800
C 	C 	0.30799 0.13076 0.98876 0.01200
C 	C 	0.20264 0.01435 0.92633 -0.17200
H 	H 	0.08810 0.99170 0.93218 0.03600
C 	C 	0.14835 0.13256 0.06501 -0.18300
H 	H 	0.26514 0.16978 0.04950 0.04300
C 	C 	0.33965 0.17309 0.95964 0.01900
C 	C 	0.40432 0.20016 0.95891 -0.01800
C 	C 	0.43990 0.19130 0.99018 -0.11000
C 	C 	0.40795 0.14849 0.01934 0.09100
C 	C 	0.34179 0.11746 0.01749 -0.10200
C 	C 	0.30578 0.19232 0.93116 -0.16900
H 	H 	0.42812 0.23129 0.93562 0.03400
C 	C 	0.44369 0.13594 0.05256 -0.20100
H 	H 	0.31693 0.08429 0.03941 0.04900
H 	H 	0.13915 0.16592 0.05472 0.05800
H 	H 	0.18949 0.15863 0.09346 0.05800
H 	H 	0.10600 0.09406 0.07716 0.06100
H 	H 	0.23215 0.00247 0.94414 0.06300
H 	H 	0.22861 0.04357 0.90165 0.05900
H 	H 	0.15737 0.96922 0.90805 0.05400
H 	H 	0.33838 0.22856 0.91212 0.05600
H 	H 	0.28791 0.21282 0.95248 0.06200
H 	H 	0.26465 0.15072 0.90692 0.05900
H 	H 	0.41252 0.10502 0.07483 0.06400
H 	H 	0.48504 0.18098 0.07395 0.07300
H 	H 	0.46089 0.11173 0.03482 0.07800
