data_crystal

_cell_length_a 18.64383
_cell_length_b 18.74026
_cell_length_c 31.59498
_cell_angle_alpha 95.42685
_cell_angle_beta  95.42616
_cell_angle_gamma 126.42884

_symmetry_space_group_name_	'P 1'
_symmetry_space_group_name_H-M	'P 1'

loop_
_symmetry_equiv_pos_as_xyz
  x,y,z

loop_
_atom_site_label
_atom_site_type_symbol
_atom_site_fract_x
_atom_site_fract_y
_atom_site_fract_z
_atom_site_charge
C 	C 	0.92376 0.00253 0.96978 0.22300
N 	N 	0.01453 0.05809 0.97117 -0.09800
C 	C 	0.06185 0.02461 0.97042 0.24000
N 	N 	0.01858 0.93518 0.96907 -0.07600
C 	C 	0.92810 0.87910 0.96875 0.25800
N 	N 	0.88011 0.91263 0.96898 -0.08700
C 	C 	0.94521 0.03432 0.50271 0.22800
N 	N 	0.03363 0.07692 0.49910 -0.08900
C 	C 	0.06784 0.02979 0.49740 0.23900
N 	N 	0.01365 0.94069 0.49909 -0.08100
C 	C 	0.92554 0.89811 0.50208 0.26600
N 	N 	0.89130 0.94482 0.50395 -0.09100
Cu	Cu	0.75016 0.33349 0.95369 0.92900
Cu	Cu	0.74688 0.26638 0.04726 0.91000
Cu	Cu	0.61856 0.31667 0.00941 0.92900
Cu	Cu	0.59361 0.34900 0.91990 0.91900
C 	C 	0.69588 0.32207 0.86285 0.29500
O 	O 	0.81265 0.46920 0.95587 -0.31600
C 	C 	0.64121 0.29564 0.09561 0.31000
O 	O 	0.61185 0.27625 0.94911 -0.63400
O 	O 	0.74190 0.34823 0.01568 -0.62400
O 	O 	0.78984 0.25302 0.95146 -0.31700
O 	O 	0.84170 0.27949 0.02386 -0.35800
O 	O 	0.66832 0.36989 0.87482 -0.33800
O 	O 	0.50265 0.29567 0.00356 -0.31200
C 	C 	0.44307 0.25989 0.96717 0.37300
C 	C 	0.77600 0.50800 0.96952 0.37700
O 	O 	0.69003 0.45784 0.97295 -0.37100
O 	O 	0.46857 0.28581 0.93055 -0.33000
O 	O 	0.73565 0.30374 0.89177 -0.31600
C 	C 	0.82451 0.23740 0.98447 0.37100
O 	O 	0.62957 0.34241 0.07147 -0.31800
O 	O 	0.64899 0.23492 0.07769 -0.37300
H 	H 	0.56626 0.21029 0.93877 0.18400
H 	H 	0.78834 0.41139 0.03100 0.19400
Cu	Cu	0.60813 0.19774 0.50667 0.93600
Cu	Cu	0.67617 0.20424 0.41406 0.90400
Cu	Cu	0.65115 0.33760 0.44974 0.90900
Cu	Cu	0.60737 0.36231 0.53649 0.92800
C 	C 	0.63818 0.26710 0.59711 0.30300
O 	O 	0.47474 0.14169 0.50704 -0.32600
C 	C 	0.61964 0.27432 0.35482 0.29200
O 	O 	0.67876 0.33778 0.51003 -0.63400
O 	O 	0.59234 0.20584 0.44479 -0.63400
O 	O 	0.67024 0.13960 0.50329 -0.32200
O 	O 	0.76448 0.23637 0.46231 -0.39000
O 	O 	0.59394 0.29918 0.58598 -0.32100
O 	O 	0.71555 0.46700 0.45848 -0.34000
C 	C 	0.71484 0.51592 0.49121 0.40000
C 	C 	0.43913 0.18026 0.49283 0.39600
O 	O 	0.49251 0.26314 0.48622 -0.36300
O 	O 	0.65588 0.47839 0.51725 -0.33500
O 	O 	0.64162 0.21370 0.56834 -0.30900
C 	C 	0.74540 0.17786 0.48746 0.38400
O 	O 	0.64302 0.33969 0.38681 -0.33900
O 	O 	0.61435 0.20354 0.36236 -0.37700
H 	H 	0.74430 0.37843 0.52290 0.19700
H 	H 	0.52886 0.16639 0.42876 0.20900
C 	C 	0.69649 0.28771 0.72749 0.04000
C 	C 	0.75011 0.37458 0.75296 -0.03000
C 	C 	0.75370 0.38581 0.79768 0.02800
C 	C 	0.66115 0.27079 0.64240 -0.03800
C 	C 	0.65495 0.22318 0.79225 0.02500
C 	C 	0.65075 0.21197 0.74737 -0.03100
C 	C 	0.67821 0.27687 0.68099 0.07100
C 	C 	0.70410 0.31016 0.81734 -0.04600
H 	H 	0.78600 0.43347 0.73790 0.08900
H 	H 	0.79274 0.45328 0.81686 0.09700
H 	H 	0.61692 0.16434 0.80717 0.06300
H 	H 	0.60930 0.14454 0.72795 0.08500
C 	C 	0.60758 0.29617 0.22155 0.03600
C 	C 	0.66762 0.37396 0.25348 -0.03400
C 	C 	0.66718 0.36828 0.29736 0.02600
C 	C 	0.62839 0.29832 0.13974 -0.05200
C 	C 	0.54328 0.20789 0.27743 0.02600
C 	C 	0.54359 0.21377 0.23363 -0.03600
C 	C 	0.61846 0.29852 0.17696 0.07000
C 	C 	0.60716 0.28448 0.30954 -0.05400
H 	H 	0.71689 0.43810 0.24441 0.08600
H 	H 	0.71648 0.42803 0.32177 0.07800
H 	H 	0.49554 0.14315 0.28637 0.06900
H 	H 	0.49632 0.15351 0.20914 0.08500
C 	C 	0.80683 0.74212 0.46181 0.26600
C 	C 	0.86626 0.80066 0.50045 -0.12700
C 	C 	0.87585 0.76547 0.53593 0.26700
C 	C 	0.82693 0.67227 0.53271 0.29700
C 	C 	0.76868 0.61369 0.49384 -0.19800
C 	C 	0.75835 0.64889 0.45845 0.30100
F 	F 	0.70043 0.59264 0.42106 -0.36500
F 	F 	0.79768 0.77583 0.42725 -0.34300
F 	F 	0.83696 0.63876 0.56716 -0.37800
F 	F 	0.93348 0.82181 0.57336 -0.34500
C 	C 	0.89526 0.11070 0.46303 0.25800
C 	C 	0.90534 0.08255 0.50125 -0.12000
C 	C 	0.86540 0.08858 0.53563 0.25700
C 	C 	0.81398 0.12051 0.53142 0.29700
C 	C 	0.80119 0.14576 0.49255 -0.20100
C 	C 	0.84286 0.14129 0.45846 0.29100
F 	F 	0.82971 0.16328 0.42027 -0.40200
F 	F 	0.93260 0.10417 0.42941 -0.35800
F 	F 	0.77717 0.12738 0.56519 -0.36800
F 	F 	0.87547 0.06235 0.57294 -0.35300
C 	C 	0.32347 0.18149 0.52543 0.30200
C 	C 	0.34393 0.14018 0.49451 -0.20800
C 	C 	0.27398 0.06686 0.46265 0.30800
C 	C 	0.18404 0.03439 0.46191 0.22700
C 	C 	0.16320 0.07441 0.49343 -0.10900
C 	C 	0.23354 0.14877 0.52488 0.25700
F 	F 	0.21443 0.18727 0.55588 -0.34500
F 	F 	0.39088 0.25301 0.55623 -0.38900
F 	F 	0.11687 0.96355 0.43077 -0.31300
F 	F 	0.29326 0.02792 0.43200 -0.38700
C 	C 	0.81917 0.65600 0.00555 0.30600
C 	C 	0.82422 0.60578 0.97155 -0.20700
C 	C 	0.85957 0.64472 0.93570 0.29400
C 	C 	0.88841 0.73225 0.93366 0.26300
C 	C 	0.88267 0.78210 0.96748 -0.13400
C 	C 	0.84790 0.74352 0.00342 0.27800
F 	F 	0.84423 0.79173 0.03686 -0.33400
F 	F 	0.78546 0.61947 0.04047 -0.36900
F 	F 	0.92228 0.76889 0.89878 -0.35200
F 	F 	0.86254 0.59642 0.90201 -0.37700
C 	C 	0.86346 0.15139 0.93954 0.29800
C 	C 	0.83639 0.16583 0.97742 -0.21200
C 	C 	0.82030 0.11129 0.00862 0.30000
C 	C 	0.83905 0.04906 0.00373 0.26700
C 	C 	0.87339 0.04024 0.96760 -0.13300
C 	C 	0.88065 0.08806 0.93443 0.25800
F 	F 	0.91049 0.07757 0.89850 -0.34300
F 	F 	0.87716 0.20150 0.90853 -0.36200
F 	F 	0.82912 0.00139 0.03544 -0.35200
F 	F 	0.78721 0.11904 0.04381 -0.40600
C 	C 	0.31250 0.13638 0.99544 0.28100
C 	C 	0.34586 0.20151 0.96882 -0.19200
C 	C 	0.28548 0.20853 0.94291 0.29800
C 	C 	0.19261 0.14964 0.94286 0.26200
C 	C 	0.15932 0.08477 0.96962 -0.12200
C 	C 	0.21979 0.07881 0.99610 0.25100
F 	F 	0.18878 0.01799 0.02293 -0.35000
F 	F 	0.36987 0.12789 0.02011 -0.37800
F 	F 	0.13465 0.15476 0.91637 -0.33200
F 	F 	0.31698 0.27323 0.91821 -0.35700
