data_crystal

_cell_length_a 18.59932
_cell_length_b 18.85227
_cell_length_c 34.75532
_cell_angle_alpha 95.41414
_cell_angle_beta  95.41439
_cell_angle_gamma 126.42816

_symmetry_space_group_name_	'P 1'
_symmetry_space_group_name_H-M	'P 1'

loop_
_symmetry_equiv_pos_as_xyz
  x,y,z

loop_
_atom_site_label
_atom_site_type_symbol
_atom_site_fract_x
_atom_site_fract_y
_atom_site_fract_z
_atom_site_charge
C 	C 	0.87304 0.95530 0.96232 0.04200
C 	C 	0.82528 0.86273 0.96160 -0.08500
C 	C 	0.87299 0.82639 0.96411 0.04000
C 	C 	0.96761 0.88262 0.96774 -0.07600
C 	C 	0.01437 0.97365 0.96655 0.03700
C 	C 	0.96726 0.01002 0.96392 -0.07900
H 	H 	0.75213 0.81974 0.95964 0.05300
H 	H 	0.00452 0.85481 0.97004 0.05300
H 	H 	0.00406 0.08114 0.96388 0.05200
C 	C 	0.96095 0.05695 0.48828 0.04600
C 	C 	0.05501 0.11109 0.48862 -0.09300
C 	C 	0.10190 0.07411 0.49140 0.04400
C 	C 	0.05508 0.98389 0.49469 -0.09000
C 	C 	0.96128 0.92972 0.49407 0.04800
C 	C 	0.91388 0.96574 0.48982 -0.08700
H 	H 	0.09145 0.18144 0.48700 0.05400
H 	H 	0.09176 0.95601 0.49794 0.05600
H 	H 	0.84106 0.92360 0.48896 0.05700
Cu	Cu	0.72097 0.29780 0.95512 0.92500
Cu	Cu	0.73222 0.25464 0.04382 0.87100
Cu	Cu	0.58327 0.25681 0.00877 0.89700
Cu	Cu	0.53912 0.27175 0.92395 0.89700
C 	C 	0.65542 0.26808 0.87224 0.28600
O 	O 	0.77334 0.42555 0.94964 -0.37200
C 	C 	0.65758 0.31064 0.09486 0.29300
O 	O 	0.57966 0.22104 0.95476 -0.63600
O 	O 	0.71703 0.32381 0.01125 -0.64000
O 	O 	0.78514 0.24251 0.96067 -0.37300
O 	O 	0.69895 0.15968 0.00368 -0.43900
O 	O 	0.57317 0.24142 0.87599 -0.38300
O 	O 	0.45244 0.18362 0.00255 -0.38500
C 	C 	0.40011 0.18348 0.97409 0.30100
C 	C 	0.72599 0.45608 0.95269 0.29500
O 	O 	0.64306 0.40369 0.95932 -0.39200
O 	O 	0.43492 0.23991 0.94955 -0.39800
O 	O 	0.70448 0.26079 0.89942 -0.36400
C 	C 	0.75366 0.17444 0.97908 0.29700
O 	O 	0.58641 0.27432 0.06623 -0.38700
O 	O 	0.73192 0.32189 0.08810 -0.42000
H 	H 	0.54455 0.15532 0.94649 0.16500
H 	H 	0.75269 0.38834 0.02284 0.17400
Cu	Cu	0.63465 0.23008 0.50728 0.92700
Cu	Cu	0.70019 0.25412 0.42235 0.86700
Cu	Cu	0.66679 0.37370 0.46238 0.89400
Cu	Cu	0.66951 0.40800 0.54890 0.89800
C 	C 	0.68250 0.28625 0.59144 0.29800
O 	O 	0.51006 0.19478 0.51426 -0.36100
C 	C 	0.63853 0.33286 0.37586 0.28600
O 	O 	0.71666 0.37060 0.51362 -0.63600
O 	O 	0.61424 0.24476 0.45299 -0.64500
O 	O 	0.67763 0.15680 0.49515 -0.37000
O 	O 	0.78100 0.25872 0.46195 -0.43900
O 	O 	0.64676 0.32851 0.58743 -0.39100
O 	O 	0.70850 0.49749 0.47318 -0.37900
C 	C 	0.76137 0.55653 0.50578 0.29800
C 	C 	0.48346 0.24388 0.50587 0.28500
O 	O 	0.54378 0.33021 0.50612 -0.39800
O 	O 	0.75080 0.53268 0.54048 -0.39600
O 	O 	0.67607 0.23441 0.56093 -0.36400
C 	C 	0.75123 0.19044 0.47984 0.30000
O 	O 	0.63201 0.37335 0.40710 -0.37500
O 	O 	0.64184 0.26520 0.37754 -0.42000
H 	H 	0.78360 0.40482 0.51891 0.16000
H 	H 	0.55008 0.20485 0.43903 0.17200
C 	C 	0.78167 0.34583 0.69917 -0.07400
C 	C 	0.71312 0.26850 0.71189 0.01300
C 	C 	0.64456 0.19126 0.68384 -0.00600
C 	C 	0.64082 0.19477 0.64368 0.00000
C 	C 	0.70378 0.27520 0.63125 -0.09200
C 	C 	0.77717 0.34964 0.65904 0.05400
C 	C 	0.70491 0.27399 0.75383 0.01200
S 	S 	0.56070 0.09122 0.69871 -0.03800
H 	H 	0.58546 0.13663 0.62228 0.04300
S 	S 	0.86242 0.44868 0.64397 -0.07000
H 	H 	0.83591 0.40456 0.72063 0.05100
C 	C 	0.73845 0.24311 0.78008 -0.00500
C 	C 	0.72479 0.24424 0.81906 -0.00600
C 	C 	0.67886 0.27723 0.83239 -0.08800
C 	C 	0.65021 0.31314 0.80645 0.05500
C 	C 	0.66203 0.30974 0.76735 -0.07400
S 	S 	0.79710 0.20244 0.76447 -0.04400
H 	H 	0.74807 0.21755 0.83870 0.04800
S 	S 	0.60186 0.36488 0.82257 -0.07200
H 	H 	0.63801 0.33532 0.74734 0.05200
H 	H 	0.83685 0.50331 0.64243 0.02800
H 	H 	0.88783 0.27250 0.76942 0.03500
H 	H 	0.66276 0.45583 0.82544 0.03400
H 	H 	0.59059 0.04056 0.70233 0.03600
C 	C 	0.54442 0.29429 0.26922 -0.07500
C 	C 	0.62372 0.36091 0.25669 0.01200
C 	C 	0.70044 0.43040 0.28491 -0.00500
C 	C 	0.70100 0.42613 0.32495 -0.00800
C 	C 	0.62585 0.35281 0.33700 -0.09100
C 	C 	0.54521 0.28972 0.30924 0.05900
C 	C 	0.63162 0.34769 0.21508 0.01300
S 	S 	0.79803 0.51986 0.27029 -0.04500
H 	H 	0.76209 0.47663 0.34643 0.02800
S 	S 	0.44587 0.20337 0.32412 -0.05600
H 	H 	0.48409 0.24260 0.24766 0.05000
C 	C 	0.66002 0.29620 0.20241 -0.00700
C 	C 	0.66764 0.28442 0.16310 -0.00400
C 	C 	0.64790 0.32399 0.13604 -0.09600
C 	C 	0.62007 0.37616 0.14873 0.05900
C 	C 	0.61135 0.38704 0.18810 -0.07500
S 	S 	0.68660 0.24642 0.23560 -0.05200
H 	H 	0.68878 0.24411 0.15347 0.02600
S 	S 	0.59986 0.43129 0.11625 -0.06100
H 	H 	0.58999 0.42707 0.19786 0.05200
H 	H 	0.44555 0.13048 0.32401 0.03400
H 	H 	0.60880 0.16420 0.23761 0.03200
H 	H 	0.50970 0.37684 0.09894 0.03800
H 	H 	0.85283 0.49596 0.26304 0.03400
C 	C 	0.82279 0.71297 0.53326 -0.02600
C 	C 	0.81871 0.65316 0.50409 -0.10700
C 	C 	0.86658 0.68592 0.47286 0.12200
C 	C 	0.90870 0.77539 0.46908 -0.08700
C 	C 	0.91286 0.83508 0.49826 -0.01900
C 	C 	0.87288 0.80442 0.53158 0.06600
N 	N 	0.88411 0.86252 0.56237 -0.19300
H 	H 	0.78760 0.68850 0.55760 0.04400
H 	H 	0.94150 0.79958 0.44412 0.05300
N 	N 	0.87617 0.63344 0.44770 -0.19900
H 	H 	0.85086 0.83860 0.58596 0.08200
H 	H 	0.92923 0.93189 0.56422 0.08600
H 	H 	0.86104 0.57328 0.45387 0.07100
H 	H 	0.90581 0.65596 0.42313 0.08100
C 	C 	0.83768 0.15088 0.51856 -0.02500
C 	C 	0.79922 0.15025 0.48172 -0.11000
C 	C 	0.81456 0.11931 0.44699 0.11500
C 	C 	0.87266 0.09483 0.44991 -0.08600
C 	C 	0.91138 0.09569 0.48671 -0.02100
C 	C 	0.89393 0.12408 0.52146 0.06700
N 	N 	0.93148 0.12655 0.55760 -0.19400
H 	H 	0.82572 0.17443 0.54511 0.04700
H 	H 	0.88485 0.07153 0.42337 0.05100
N 	N 	0.77126 0.10990 0.41089 -0.20000
H 	H 	0.91707 0.14624 0.58305 0.08300
H 	H 	0.97622 0.11034 0.56089 0.08400
H 	H 	0.71970 0.11717 0.40778 0.04900
H 	H 	0.78584 0.09064 0.38539 0.07600
C 	C 	0.26003 0.18489 0.52816 -0.08800
C 	C 	0.20101 0.13038 0.49245 -0.02000
C 	C 	0.23622 0.11794 0.46027 0.06600
C 	C 	0.32861 0.15437 0.46547 -0.02700
C 	C 	0.38666 0.20508 0.50179 -0.10500
C 	C 	0.35251 0.22174 0.53336 0.12200
N 	N 	0.40744 0.27115 0.56892 -0.20200
H 	H 	0.23301 0.19499 0.55264 0.05100
H 	H 	0.35552 0.14385 0.44104 0.03300
N 	N 	0.18186 0.07172 0.42435 -0.19400
H 	H 	0.38169 0.28365 0.59188 0.08200
H 	H 	0.47563 0.29668 0.57436 0.08400
H 	H 	0.11462 0.04928 0.41887 0.08400
H 	H 	0.20756 0.06037 0.40104 0.08000
C 	C 	0.81964 0.68138 0.92522 -0.08900
C 	C 	0.82422 0.72864 0.96026 -0.01800
C 	C 	0.80055 0.68704 0.99356 0.06400
C 	C 	0.77395 0.59947 0.99118 -0.02500
C 	C 	0.77103 0.55292 0.95634 -0.11200
C 	C 	0.79667 0.59531 0.92336 0.12000
N 	N 	0.80117 0.55474 0.89015 -0.20600
H 	H 	0.83920 0.71390 0.89995 0.05100
H 	H 	0.75383 0.56675 0.01638 0.03800
N 	N 	0.80331 0.73067 0.02784 -0.19300
H 	H 	0.82043 0.58681 0.86602 0.08200
H 	H 	0.78748 0.49211 0.88813 0.09300
H 	H 	0.82018 0.79471 0.03032 0.08600
H 	H 	0.78714 0.69993 0.05245 0.08200
C 	C 	0.77522 0.07644 0.93705 -0.02400
C 	C 	0.78546 0.11901 0.97473 -0.11200
C 	C 	0.81756 0.10112 0.00824 0.11600
C 	C 	0.83275 0.03655 0.00346 -0.08900
C 	C 	0.82701 0.99737 0.96586 -0.01500
C 	C 	0.79591 0.01579 0.93225 0.06200
N 	N 	0.78531 0.97523 0.89543 -0.19200
H 	H 	0.74981 0.08940 0.91140 0.04500
H 	H 	0.85703 0.02267 0.02913 0.05100
N 	N 	0.83883 0.14921 0.04476 -0.19900
H 	H 	0.76453 0.99079 0.87072 0.08300
H 	H 	0.79539 0.92639 0.89100 0.08500
H 	H 	0.84366 0.20758 0.04866 0.04200
H 	H 	0.85721 0.13205 0.06956 0.07400
C 	C 	0.17193 0.09280 0.00183 -0.09200
C 	C 	0.11295 0.03074 0.96747 -0.01700
C 	C 	0.14871 0.01970 0.93524 0.06200
C 	C 	0.24287 0.06726 0.93895 -0.02500
C 	C 	0.30200 0.12952 0.97322 -0.11400
C 	C 	0.26645 0.14453 0.00463 0.12900
N 	N 	0.32231 0.20989 0.03688 -0.20300
H 	H 	0.14412 0.10158 0.02631 0.05200
H 	H 	0.27051 0.05759 0.91461 0.03100
N 	N 	0.09319 0.96506 0.90048 -0.19200
H 	H 	0.29529 0.21781 0.06050 0.08300
H 	H 	0.39224 0.25592 0.03820 0.09700
H 	H 	0.02372 0.93491 0.89552 0.08400
H 	H 	0.12001 0.95492 0.87733 0.08000
