data_crystal

_cell_length_a 16.09817
_cell_length_b 16.79898
_cell_length_c 26.50932
_cell_angle_alpha 89.99365
_cell_angle_beta  89.99266
_cell_angle_gamma 120.27041

_symmetry_space_group_name_	'P 1'
_symmetry_space_group_name_H-M	'P 1'

loop_
_symmetry_equiv_pos_as_xyz
  x,y,z

loop_
_atom_site_label
_atom_site_type_symbol
_atom_site_fract_x
_atom_site_fract_y
_atom_site_fract_z
_atom_site_charge
C 	C 	0.22594 0.47536 0.30939 0.31400
C 	C 	0.21432 0.76755 0.29729 0.31700
C 	C 	0.23223 0.47460 0.18575 0.30600
Ni	Ni	0.19419 0.60642 0.24077 1.11500
O 	O 	0.19664 0.70470 0.18963 -0.34500
O 	O 	0.16145 0.49003 0.28661 -0.35500
O 	O 	0.18420 0.67925 0.30169 -0.36200
O 	O 	0.19759 0.53029 0.18140 -0.36700
C 	C 	0.26368 0.12535 0.98025 0.29000
C 	C 	0.12997 0.86671 0.00276 0.32600
C 	C 	0.04854 0.14184 0.07936 0.28700
Ni	Ni	0.10878 0.00372 0.05949 1.11700
Ni	Ni	0.07890 0.98077 0.93824 1.12400
O 	O 	0.24323 0.07158 0.02119 -0.34000
O 	O 	0.20355 0.10082 0.94142 -0.36800
O 	O 	0.07613 0.87409 0.03669 -0.36500
O 	O 	0.15636 0.92155 0.96315 -0.35800
O 	O 	0.12023 0.12503 0.08297 -0.35300
O 	O 	0.04967 0.01627 0.00098 -0.71800
H 	H 	0.08233 0.08364 0.99662 0.16300
C 	C 	0.10326 0.09913 0.58949 0.33100
C 	C 	0.09337 0.15426 0.42902 0.32700
C 	C 	0.00095 0.90316 0.39999 0.30700
Ni	Ni	0.07008 0.00046 0.49545 1.12100
O 	O 	0.12193 0.09392 0.43771 -0.37500
O 	O 	0.01603 0.04603 0.60725 -0.34700
O 	O 	0.11641 0.11026 0.54109 -0.37400
O 	O 	0.02711 0.89737 0.44629 -0.37500
O 	O 	0.04182 0.91030 0.55529 -0.37000
O 	O 	0.00329 0.13112 0.43399 -0.37600
C 	C 	0.13216 0.31003 0.07676 -0.03300
C 	C 	0.06497 0.22846 0.10105 -0.06700
C 	C 	0.04709 0.23139 0.15278 0.12300
C 	C 	0.10621 0.31074 0.18083 -0.02800
C 	C 	0.18290 0.38788 0.15764 -0.06600
C 	C 	0.19358 0.38838 0.10494 0.13100
H 	H 	0.14394 0.30937 0.03653 0.06800
H 	H 	0.09177 0.31282 0.22061 0.07500
C 	C 	0.27851 0.88987 0.04053 -0.03700
C 	C 	0.18928 0.82822 0.01939 -0.07800
C 	C 	0.14289 0.73587 0.03548 0.13200
C 	C 	0.17319 0.71258 0.07989 -0.03100
C 	C 	0.24908 0.78155 0.10836 -0.06300
C 	C 	0.30251 0.87165 0.08814 0.13000
H 	H 	0.31910 0.95859 0.02524 0.09400
H 	H 	0.13497 0.64209 0.09341 0.08100
Br	Br	0.03100 0.64375 0.00081 -0.18000
C 	C 	0.16963 0.39247 0.39106 -0.02700
C 	C 	0.19478 0.39142 0.34048 -0.07600
C 	C 	0.21372 0.32126 0.32470 0.11900
C 	C 	0.19048 0.24598 0.35639 -0.02500
C 	C 	0.15819 0.24402 0.40555 -0.07800
C 	C 	0.15832 0.32255 0.42421 0.13200
Br	Br	0.14510 0.33551 0.49517 -0.16900
H 	H 	0.16436 0.45021 0.40536 0.08200
H 	H 	0.19545 0.18799 0.34221 0.07700
C 	C 	0.05577 0.74743 0.32509 -0.04700
C 	C 	0.15560 0.80548 0.31860 -0.06300
C 	C 	0.19718 0.90081 0.32899 0.12300
C 	C 	0.13951 0.93538 0.34667 -0.02400
C 	C 	0.04276 0.87560 0.35891 -0.08700
H 	H 	0.02172 0.67531 0.31477 0.08000
H 	H 	0.17271 0.00785 0.35618 0.07300
H 	H 	0.03696 0.80891 0.64926 0.06800
C 	C 	0.24380 0.08462 0.61347 -0.02900
C 	C 	0.18760 0.12566 0.62196 -0.08100
H 	H 	0.21828 0.02637 0.58813 0.06200
Br	Br	0.29245 0.49521 0.07087 -0.18900
Br	Br	0.28334 0.33205 0.26423 -0.21400
C 	C 	0.27013 0.75957 0.15916 0.29700
O 	O 	0.28238 0.81718 0.26465 -0.34200
C 	C 	0.33517 0.12151 0.63511 0.12800
C 	C 	0.22231 0.20254 0.65415 0.13500
Br	Br	0.14706 0.25961 0.66755 -0.18400
O 	O 	0.31764 0.50059 0.20764 -0.33400
H 	H 	0.32688 0.30457 0.95079 0.07600
O 	O 	0.31329 0.54307 0.31533 -0.37900
C 	C 	0.36264 0.20122 0.97156 -0.06600
C 	C 	0.31363 0.23912 0.67625 -0.02800
O 	O 	0.32892 0.66877 0.23765 -0.72200
H 	H 	0.33904 0.66614 0.20122 0.16900
Br	Br	0.33362 0.98396 0.32508 -0.17600
O 	O 	0.36056 0.80495 0.17582 -0.33300
O 	O 	0.01186 0.03555 0.89591 -0.35800
C 	C 	0.37345 0.27665 0.94343 -0.02900
H 	H 	0.33979 0.29796 0.70126 0.07400
C 	C 	0.37087 0.19954 0.66643 -0.07400
Br	Br	0.39036 0.97474 0.12899 -0.16200
Ni	Ni	0.39544 0.79865 0.24830 1.13300
Ni	Ni	0.39756 0.60990 0.25649 1.12800
C 	C 	0.99954 0.78223 0.34504 0.15900
H 	H 	0.99855 0.25771 0.93114 0.08100
Br	Br	0.41255 0.06784 0.61869 -0.19000
Br	Br	0.91505 0.33015 0.49063 -0.16900
O 	O 	0.95600 0.95005 0.38917 -0.34200
Br	Br	0.47743 0.14386 0.02700 -0.16900
C 	C 	0.76026 0.52825 0.81273 0.31000
C 	C 	0.73318 0.24396 0.66890 0.31900
C 	C 	0.76743 0.52080 0.68214 0.31700
C 	C 	0.78728 0.24305 0.80745 0.30700
C 	C 	0.46402 0.23517 0.69242 0.32400
C 	C 	0.51402 0.25766 0.83488 0.29600
Ni	Ni	0.80308 0.39825 0.74514 1.12200
Ni	Ni	0.60043 0.20442 0.75415 1.12900
Ni	Ni	0.59930 0.39421 0.75073 1.12700
O 	O 	0.82536 0.51272 0.78987 -0.32800
O 	O 	0.66724 0.46967 0.81107 -0.36100
O 	O 	0.47311 0.18285 0.72653 -0.35400
O 	O 	0.80496 0.29784 0.69914 -0.35300
O 	O 	0.64371 0.21456 0.68184 -0.35100
O 	O 	0.49591 0.30167 0.79847 -0.34700
O 	O 	0.78834 0.45579 0.68021 -0.37200
O 	O 	0.69049 0.50846 0.70724 -0.35600
O 	O 	0.54748 0.20167 0.82339 -0.36000
O 	O 	0.82469 0.33326 0.80537 -0.34600
O 	O 	0.71108 0.18581 0.77955 -0.35400
O 	O 	0.52824 0.32337 0.68925 -0.37200
O 	O 	0.67290 0.33543 0.76020 -0.71900
H 	H 	0.68152 0.34025 0.79703 0.16600
C 	C 	0.46146 0.74831 0.33880 0.31600
C 	C 	0.55085 0.76846 0.20277 0.31100
O 	O 	0.48709 0.70187 0.30841 -0.36600
O 	O 	0.52963 0.82145 0.23099 -0.34800
O 	O 	0.49654 0.67760 0.20309 -0.36400
O 	O 	0.40948 0.78287 0.32198 -0.35600
C 	C 	0.90537 0.89010 0.09785 0.33000
C 	C 	0.87896 0.83624 0.93433 0.32900
C 	C 	0.98166 0.09259 0.91203 0.31600
Ni	Ni	0.92003 0.98686 0.00635 1.12700
O 	O 	0.85350 0.89593 0.94907 -0.35700
O 	O 	0.99499 0.94385 0.11202 -0.32700
O 	O 	0.88675 0.87725 0.05000 -0.37700
O 	O 	0.95069 0.08922 0.95871 -0.37900
O 	O 	0.95893 0.07537 0.06763 -0.34200
O 	O 	0.96692 0.85375 0.93982 -0.36900
C 	C 	0.71858 0.86580 0.48918 0.31100
C 	C 	0.85331 0.11443 0.51012 0.32600
C 	C 	0.95389 0.84419 0.57017 0.31600
Ni	Ni	0.89260 0.98393 0.56122 1.12300
Ni	Ni	0.89610 0.00185 0.43891 1.12900
O 	O 	0.75008 0.91384 0.53226 -0.35000
O 	O 	0.77748 0.87896 0.45112 -0.35800
O 	O 	0.91579 0.11118 0.53980 -0.35200
O 	O 	0.82151 0.05904 0.47071 -0.35600
O 	O 	0.88614 0.86345 0.58194 -0.35100
O 	O 	0.94138 0.97303 0.49867 -0.71200
H 	H 	0.90911 0.90568 0.49514 0.17900
Br	Br	0.94706 0.12501 0.18649 -0.17600
C 	C 	0.76390 0.90627 0.11723 -0.01400
C 	C 	0.82613 0.87456 0.13204 -0.08100
C 	C 	0.80143 0.81479 0.17367 0.13700
C 	C 	0.71226 0.78241 0.19759 -0.02900
C 	C 	0.64769 0.80974 0.18044 -0.06400
C 	C 	0.67511 0.87394 0.14098 0.12400
Br	Br	0.58928 0.91297 0.11619 -0.17600
H 	H 	0.78200 0.95193 0.08513 0.05100
H 	H 	0.69252 0.73483 0.22896 0.08200
Br	Br	0.88683 0.77448 0.19744 -0.18000
C 	C 	0.58680 0.88239 0.45668 -0.03400
C 	C 	0.61667 0.82379 0.47656 -0.07100
C 	C 	0.56640 0.73070 0.46219 0.13100
C 	C 	0.50953 0.70440 0.41860 -0.02700
C 	C 	0.50094 0.77076 0.39044 -0.07300
C 	C 	0.53696 0.86014 0.41096 0.12900
Br	Br	0.53688 0.95799 0.37341 -0.18400
H 	H 	0.61826 0.95209 0.47093 0.08100
H 	H 	0.47599 0.63380 0.40541 0.08100
Br	Br	0.58135 0.64098 0.49930 -0.17700
Br	Br	0.86381 0.70132 0.35333 -0.16800
C 	C 	0.86393 0.14512 0.80683 -0.02900
C 	C 	0.84451 0.20752 0.83243 -0.06700
C 	C 	0.89387 0.24786 0.87768 0.12500
C 	C 	0.96115 0.22613 0.89628 -0.02600
C 	C 	0.96703 0.15199 0.87595 -0.07100
C 	C 	0.92730 0.11926 0.82777 0.13600
Br	Br	0.97698 0.06045 0.78533 -0.16800
H 	H 	0.83378 0.12034 0.76969 0.08900
Br	Br	0.86177 0.32332 0.91815 -0.16400
C 	C 	0.79248 0.68646 0.82484 -0.02900
C 	C 	0.79217 0.60904 0.84502 -0.06000
C 	C 	0.78999 0.59834 0.89782 0.13200
C 	C 	0.79756 0.66846 0.92931 -0.02000
C 	C 	0.81111 0.75099 0.90868 -0.07700
C 	C 	0.79603 0.75438 0.85682 0.13300
Br	Br	0.77555 0.84869 0.82978 -0.17900
H 	H 	0.78365 0.69085 0.78457 0.08300
H 	H 	0.80293 0.66266 0.96976 0.08900
Br	Br	0.77142 0.48638 0.92758 -0.15900
C 	C 	0.49287 0.20450 0.92456 -0.02800
C 	C 	0.48281 0.25911 0.88756 -0.06400
C 	C 	0.43280 0.30550 0.90064 0.13300
C 	C 	0.43663 0.18050 0.96833 0.12600
H 	H 	0.54431 0.18154 0.91960 0.08800
Br	Br	0.45589 0.41586 0.86670 -0.20000
C 	C 	0.71656 0.08683 0.56279 -0.04000
C 	C 	0.79326 0.14807 0.53213 -0.07700
C 	C 	0.83408 0.24314 0.54054 0.13400
C 	C 	0.81522 0.27452 0.58571 -0.02500
C 	C 	0.75230 0.21097 0.62140 -0.07400
C 	C 	0.70094 0.11637 0.60919 0.13400
Br	Br	0.62080 0.02517 0.65808 -0.20300
H 	H 	0.67862 0.01398 0.55428 0.07800
H 	H 	0.84938 0.34785 0.59301 0.08100
C 	C 	0.79858 0.60212 0.59994 -0.02400
C 	C 	0.82416 0.60397 0.65069 -0.07400
C 	C 	0.91510 0.67620 0.66714 0.11900
C 	C 	0.97166 0.75026 0.63497 -0.00900
C 	C 	0.93801 0.75470 0.58712 -0.07600
C 	C 	0.85804 0.67504 0.56763 0.12800
Br	Br	0.82562 0.66854 0.49767 -0.17200
H 	H 	0.73393 0.54325 0.58528 0.08400
Br	Br	0.96505 0.67620 0.73250 -0.21000
