data_crystal

_cell_length_a 27.86539
_cell_length_b 27.94898
_cell_length_c 35.03837
_cell_angle_alpha 95.49345
_cell_angle_beta  95.48957
_cell_angle_gamma 125.67950

_symmetry_space_group_name_	'P 1'
_symmetry_space_group_name_H-M	'P 1'

loop_
_symmetry_equiv_pos_as_xyz
  x,y,z

loop_
_atom_site_label
_atom_site_type_symbol
_atom_site_fract_x
_atom_site_fract_y
_atom_site_fract_z
_atom_site_charge
C 	C 	0.96218 0.02613 0.99524 0.13300
N 	N 	0.02064 0.05724 0.99108 -0.12700
C 	C 	0.04623 0.02841 0.98695 0.13900
N 	N 	0.01346 0.96876 0.98695 -0.12300
C 	C 	0.95519 0.93776 0.99107 0.14000
N 	N 	0.92951 0.96639 0.99520 -0.12800
C 	C 	0.95565 0.01062 0.45422 0.13100
N 	N 	0.92424 0.95205 0.45777 -0.12700
C 	C 	0.95325 0.92668 0.46228 0.13800
N 	N 	0.01337 0.95976 0.46325 -0.12400
C 	C 	0.04464 0.01812 0.45973 0.13900
N 	N 	0.01583 0.04357 0.45522 -0.12800
Cu	Cu	0.62885 0.23989 0.99841 0.93300
Cu	Cu	0.67848 0.24292 0.91676 0.88700
Cu	Cu	0.66719 0.33722 0.94932 0.90400
Cu	Cu	0.63187 0.35214 0.02527 0.90800
C 	C 	0.64335 0.28209 0.07993 0.39800
O 	O 	0.54112 0.20617 0.99639 -0.33800
C 	C 	0.65083 0.29847 0.86392 0.39400
O 	O 	0.67943 0.33349 0.00340 -0.63600
O 	O 	0.62363 0.24851 0.94305 -0.63800
O 	O 	0.66485 0.19565 0.99611 -0.34700
O 	O 	0.73333 0.25784 0.96104 -0.41800
O 	O 	0.61801 0.30792 0.06950 -0.35100
O 	O 	0.71386 0.42375 0.95916 -0.35000
C 	C 	0.70924 0.45622 0.98639 0.30700
C 	C 	0.51956 0.23330 0.98223 0.30600
O 	O 	0.55645 0.28930 0.97834 -0.37900
O 	O 	0.66882 0.43150 0.00910 -0.36600
O 	O 	0.64680 0.24726 0.05384 -0.33200
C 	C 	0.71613 0.21870 0.98417 0.31400
O 	O 	0.66823 0.34203 0.89337 -0.35000
O 	O 	0.64326 0.24877 0.86976 -0.38200
H 	H 	0.72213 0.35829 0.01658 0.19000
H 	H 	0.58236 0.22504 0.92755 0.19300
Cu	Cu	0.74347 0.34533 0.44983 0.93300
Cu	Cu	0.74074 0.29391 0.53041 0.88900
Cu	Cu	0.64858 0.30976 0.50094 0.90500
Cu	Cu	0.63110 0.34355 0.42518 0.90700
C 	C 	0.69899 0.33137 0.36884 0.40000
O 	O 	0.77779 0.43306 0.45215 -0.33600
C 	C 	0.68636 0.31952 0.58547 0.39200
O 	O 	0.64983 0.29570 0.44646 -0.63800
O 	O 	0.73702 0.35091 0.50564 -0.63700
O 	O 	0.78718 0.30866 0.45065 -0.34700
O 	O 	0.72457 0.23995 0.48530 -0.41700
O 	O 	0.67395 0.35712 0.38021 -0.35400
O 	O 	0.56192 0.26466 0.49297 -0.35600
C 	C 	0.52841 0.26767 0.46543 0.31400
C 	C 	0.75138 0.45504 0.46703 0.30500
O 	O 	0.69562 0.41859 0.47180 -0.37400
O 	O 	0.55223 0.30725 0.44221 -0.36900
O 	O 	0.73399 0.32706 0.39421 -0.33500
C 	C 	0.76382 0.25723 0.46219 0.31600
O 	O 	0.64707 0.31412 0.55746 -0.34600
O 	O 	0.73609 0.32788 0.57841 -0.38100
H 	H 	0.62411 0.25293 0.43364 0.18800
H 	H 	0.76200 0.39197 0.52141 0.19100
C 	C 	0.67553 0.28368 0.68693 0.22400
C 	C 	0.65692 0.31676 0.70335 -0.00500
C 	C 	0.64703 0.35020 0.68082 0.22800
C 	C 	0.65622 0.35093 0.64218 0.31100
C 	C 	0.67532 0.31812 0.62584 -0.21400
C 	C 	0.68450 0.28417 0.64837 0.30700
C 	C 	0.64950 0.31752 0.74451 -0.00400
F 	F 	0.62896 0.38228 0.69647 -0.35200
F 	F 	0.70144 0.25105 0.63267 -0.40300
C 	C 	0.69602 0.36520 0.77367 0.22500
C 	C 	0.69455 0.36079 0.81306 0.30700
C 	C 	0.64656 0.30848 0.82357 -0.21500
C 	C 	0.59800 0.26264 0.79447 0.30900
C 	C 	0.59944 0.26720 0.75510 0.22600
F 	F 	0.74413 0.41450 0.76374 -0.35500
F 	F 	0.55017 0.21297 0.80431 -0.38900
F 	F 	0.74147 0.40579 0.84086 -0.38800
F 	F 	0.55337 0.22165 0.72713 -0.35500
F 	F 	0.68530 0.25131 0.70853 -0.35900
F 	F 	0.64792 0.38456 0.62097 -0.38500
C 	C 	0.61822 0.26452 0.18312 0.22400
C 	C 	0.67615 0.28796 0.20259 -0.00400
C 	C 	0.72197 0.30445 0.18110 0.22800
C 	C 	0.71058 0.30010 0.14062 0.30700
C 	C 	0.65341 0.27956 0.12146 -0.21200
C 	C 	0.60686 0.26025 0.14273 0.31200
C 	C 	0.69006 0.30073 0.24566 -0.00400
F 	F 	0.77790 0.32628 0.19961 -0.35200
F 	F 	0.55077 0.23803 0.12428 -0.38300
C 	C 	0.67226 0.25399 0.26638 0.22800
C 	C 	0.67771 0.26460 0.30701 0.30800
C 	C 	0.70067 0.32191 0.32710 -0.21300
C 	C 	0.72131 0.36927 0.30656 0.31200
C 	C 	0.71595 0.35869 0.26602 0.22400
F 	F 	0.64807 0.19799 0.24701 -0.35200
F 	F 	0.74576 0.42538 0.32587 -0.38400
F 	F 	0.65855 0.21873 0.32666 -0.39300
F 	F 	0.73407 0.40433 0.24630 -0.35700
F 	F 	0.57343 0.24770 0.20358 -0.35600
F 	F 	0.75565 0.31796 0.12026 -0.39200
C 	C 	0.86806 0.75113 0.47107 0.02500
C 	C 	0.81688 0.70494 0.44390 -0.03300
C 	C 	0.79368 0.64515 0.44430 -0.01900
C 	C 	0.82161 0.63127 0.47183 0.00500
C 	C 	0.87211 0.67737 0.49947 -0.02000
C 	C 	0.89530 0.73719 0.49909 -0.03400
C 	C 	0.89563 0.81281 0.46815 0.01800
C 	C 	0.92057 0.86467 0.46550 -0.02200
C 	C 	0.79879 0.56974 0.47126 0.06400
C 	C 	0.77828 0.51772 0.46990 -0.07900
H 	H 	0.79569 0.71535 0.42208 0.06100
H 	H 	0.75444 0.60971 0.42295 0.06100
H 	H 	0.89379 0.66699 0.52095 0.05700
H 	H 	0.93500 0.77267 0.52011 0.05900
C 	C 	0.82837 0.15973 0.44423 0.00200
C 	C 	0.88755 0.18684 0.43863 -0.02000
C 	C 	0.91136 0.15447 0.43851 -0.03500
C 	C 	0.87612 0.09487 0.44405 0.02500
C 	C 	0.81642 0.06724 0.44857 -0.03500
C 	C 	0.79259 0.09959 0.44865 -0.02000
C 	C 	0.80612 0.19493 0.44894 0.06500
C 	C 	0.78717 0.22388 0.45416 -0.08900
C 	C 	0.90234 0.06331 0.44722 0.01400
C 	C 	0.92569 0.03827 0.45027 -0.02300
H 	H 	0.91552 0.23330 0.43524 0.05700
H 	H 	0.95751 0.17609 0.43489 0.05800
H 	H 	0.78885 0.02116 0.45277 0.05800
H 	H 	0.74681 0.07833 0.45303 0.05700
C 	C 	0.22513 0.11414 0.46254 0.02400
C 	C 	0.26389 0.12900 0.49749 -0.03300
C 	C 	0.32550 0.15952 0.49820 -0.02000
C 	C 	0.34855 0.17522 0.46396 0.00400
C 	C 	0.30981 0.16050 0.42904 -0.02100
C 	C 	0.24821 0.12999 0.42833 -0.03400
C 	C 	0.16151 0.08109 0.46155 0.01800
C 	C 	0.10817 0.05278 0.46070 -0.02300
C 	C 	0.41202 0.20723 0.46475 0.06300
C 	C 	0.46518 0.23448 0.46520 -0.08000
H 	H 	0.24632 0.11675 0.52403 0.06100
H 	H 	0.35524 0.17090 0.52532 0.06400
H 	H 	0.32737 0.17265 0.40248 0.05700
H 	H 	0.21847 0.11851 0.40119 0.05900
C 	C 	0.85993 0.75828 0.98975 0.01900
C 	C 	0.85907 0.73731 0.02462 -0.02900
C 	C 	0.82916 0.67597 0.02388 -0.01700
C 	C 	0.80006 0.63541 0.98826 0.00100
C 	C 	0.80072 0.65635 0.95339 -0.02000
C 	C 	0.83063 0.71769 0.95413 -0.03200
C 	C 	0.89263 0.82157 0.99035 0.01800
C 	C 	0.92071 0.87461 0.99076 -0.02500
C 	C 	0.76867 0.57224 0.98754 0.06300
C 	C 	0.74191 0.51928 0.98698 -0.07800
H 	H 	0.88178 0.76847 0.05225 0.05900
H 	H 	0.82866 0.66004 0.05096 0.05700
H 	H 	0.77815 0.62520 0.92576 0.06500
H 	H 	0.83126 0.73363 0.92705 0.06100
C 	C 	0.87807 0.10594 0.00384 0.02500
C 	C 	0.81861 0.07169 0.01002 -0.03200
C 	C 	0.78647 0.09577 0.00939 -0.02400
C 	C 	0.81367 0.15423 0.00262 0.01400
C 	C 	0.87368 0.18906 0.99753 -0.02800
C 	C 	0.90580 0.16496 0.99813 -0.03600
C 	C 	0.90933 0.07935 0.00123 0.02300
C 	C 	0.93430 0.05589 0.99864 -0.03200
C 	C 	0.77867 0.17666 0.99760 0.05600
C 	C 	0.74973 0.19562 0.99221 -0.08600
H 	H 	0.79692 0.02607 0.01456 0.05800
H 	H 	0.74011 0.06855 0.01333 0.06000
H 	H 	0.89501 0.23429 0.99225 0.05700
H 	H 	0.95178 0.19177 0.99342 0.05700
C 	C 	0.22152 0.11337 0.97623 0.02600
C 	C 	0.23597 0.08168 0.95268 -0.03400
C 	C 	0.29619 0.10585 0.95220 -0.02000
C 	C 	0.34218 0.16181 0.97526 0.00600
C 	C 	0.32771 0.19412 0.99810 -0.02300
C 	C 	0.26751 0.16992 0.99861 -0.03800
C 	C 	0.15987 0.08572 0.97977 0.01600
C 	C 	0.10809 0.06083 0.98299 -0.02300
C 	C 	0.40420 0.18531 0.97659 0.06300
C 	C 	0.45657 0.20621 0.97860 -0.08100
H 	H 	0.20065 0.03787 0.93533 0.05900
H 	H 	0.30702 0.08071 0.93438 0.05800
H 	H 	0.36306 0.23752 0.01591 0.06300
H 	H 	0.25671 0.19464 0.01693 0.06400
