data_crystal

_cell_length_a 24.95795
_cell_length_b 21.62237
_cell_length_c 44.10249
_cell_angle_alpha 90.59883
_cell_angle_beta  90.68659
_cell_angle_gamma 113.07218

_symmetry_space_group_name_	'P 1'
_symmetry_space_group_name_H-M	'P 1'

loop_
_symmetry_equiv_pos_as_xyz
  x,y,z

loop_
_atom_site_label
_atom_site_type_symbol
_atom_site_fract_x
_atom_site_fract_y
_atom_site_fract_z
_atom_site_charge
C 	C 	0.00121 0.55375 0.55675 -0.04000
C 	C 	0.00091 0.55145 0.49279 0.00600
H 	H 	0.00222 0.55406 0.58133 0.04000
C 	C 	0.00336 0.62920 0.02045 -0.04000
H 	H 	0.00127 0.03347 0.17837 0.04300
C 	C 	0.00463 0.54404 0.46106 -0.05200
H 	H 	0.00753 0.12016 0.80046 0.03800
C 	C 	0.00226 0.22202 0.19963 -0.05400
H 	H 	0.01036 0.86016 0.68710 0.04400
C 	C 	0.00557 0.17339 0.28402 -0.03900
H 	H 	0.01154 0.67219 0.03539 0.03800
C 	C 	0.01727 0.04457 0.76899 0.00300
H 	H 	0.01132 0.23989 0.34257 0.04100
C 	C 	0.01948 0.04802 0.73767 0.00700
C 	C 	0.01476 0.24114 0.28092 -0.05400
C 	C 	0.01475 0.17915 0.21742 -0.03700
H 	H 	0.01937 0.17368 0.74654 0.04300
H 	H 	0.02222 0.15800 0.30420 0.03800
C 	C 	0.02612 0.93325 0.14502 -0.05200
C 	C 	0.03122 0.94979 0.17603 0.03000
C 	C 	0.03621 0.99107 0.78260 -0.04800
H 	H 	0.03637 0.98992 0.80776 0.04200
C 	C 	0.03520 0.54681 0.99706 0.00600
C 	C 	0.03742 0.29637 0.15504 -0.05000
C 	C 	0.03966 0.99676 0.72240 -0.05000
H 	H 	0.04123 0.99862 0.69720 0.04000
C 	C 	0.04342 0.01378 0.28203 -0.05800
C 	C 	0.04553 0.28429 0.33380 -0.05200
H 	H 	0.04513 0.89167 0.26825 0.04000
C 	C 	0.04515 0.60134 0.01750 0.00900
C 	C 	0.04856 0.27809 0.18414 0.02700
C 	C 	0.05168 0.59145 0.54131 -0.04200
C 	C 	0.05225 0.59027 0.50953 0.00700
C 	C 	0.99792 0.98707 0.18899 -0.05500
Ni	Ni	0.72627 0.35691 0.88982 1.10000
O 	O 	0.65127 0.32566 0.86434 -0.70600
Ni	Ni	0.59902 0.35001 0.89155 1.10000
O 	O 	0.76613 0.32345 0.85677 -0.37600
O 	O 	0.69513 0.21694 0.85845 -0.41800
O 	O 	0.74742 0.44583 0.86730 -0.39600
Ni	Ni	0.61605 0.22925 0.85718 1.06200
O 	O 	0.76433 0.42055 0.95776 -0.42300
O 	O 	0.61106 0.20659 0.90216 -0.41500
O 	O 	0.53126 0.32589 0.86177 -0.38800
O 	O 	0.66976 0.36777 0.91934 -0.70200
O 	O 	0.80353 0.39558 0.91438 -0.37500
O 	O 	0.56082 0.39721 0.91947 -0.37300
O 	O 	0.64566 0.48968 0.92327 -0.42300
Ni	Ni	0.70656 0.45485 0.93988 1.06900
H 	H 	0.65626 0.34980 0.84495 0.15300
H 	H 	0.66116 0.33237 0.93472 0.15500
C 	C 	0.57235 0.21500 0.91966 0.28400
O 	O 	0.76843 0.51132 0.91027 -0.40800
C 	C 	0.74471 0.26001 0.84759 0.29000
C 	C 	0.51219 0.26738 0.84718 0.29500
C 	C 	0.76318 0.50516 0.88061 0.31800
C 	C 	0.59056 0.45834 0.93018 0.27100
C 	C 	0.80944 0.42076 0.94238 0.29400
O 	O 	0.55263 0.26192 0.91381 -0.37200
O 	O 	0.53068 0.21974 0.85527 -0.41500
Ni	Ni	0.58809 0.32086 0.61676 1.10200
O 	O 	0.65514 0.34788 0.58662 -0.70000
Ni	Ni	0.72135 0.35359 0.61400 1.10000
O 	O 	0.53648 0.35465 0.59070 -0.37200
O 	O 	0.61337 0.45422 0.58635 -0.41800
O 	O 	0.54967 0.22785 0.59573 -0.37200
Ni	Ni	0.67817 0.43303 0.56554 1.07200
O 	O 	0.54228 0.19070 0.65429 -0.41400
O 	O 	0.74248 0.50251 0.59214 -0.40600
O 	O 	0.79243 0.40143 0.58679 -0.37600
O 	O 	0.65177 0.31310 0.64200 -0.70400
O 	O 	0.52538 0.28762 0.64859 -0.38700
O 	O 	0.77499 0.33868 0.64598 -0.37900
O 	O 	0.71711 0.22642 0.64851 -0.41600
Ni	Ni	0.63098 0.21873 0.65036 1.06300
H 	H 	0.64888 0.31173 0.57138 0.15600
H 	H 	0.65684 0.33913 0.66119 0.15400
C 	C 	0.74748 0.49972 0.62173 0.32900
O 	O 	0.62254 0.19172 0.60573 -0.41800
C 	C 	0.55877 0.41590 0.57999 0.27700
C 	C 	0.79007 0.41853 0.55805 0.28700
C 	C 	0.57676 0.18784 0.58968 0.28500
C 	C 	0.76286 0.27945 0.65819 0.29400
C 	C 	0.51520 0.23032 0.66257 0.29300
O 	O 	0.73167 0.44195 0.63538 -0.40600
O 	O 	0.74010 0.41065 0.54458 -0.42000
C 	C 	0.99842 0.92900 0.73489 0.00200
C 	C 	0.09826 0.00916 0.73800 0.00700
C 	C 	0.99634 0.92600 0.76589 0.00600
C 	C 	0.09650 0.00681 0.76916 0.00200
Ni	Ni	0.24139 0.71442 0.39483 1.10000
O 	O 	0.31315 0.74619 0.36787 -0.70400
Ni	Ni	0.36718 0.71677 0.39164 1.10000
O 	O 	0.19822 0.75144 0.36502 -0.37700
O 	O 	0.27192 0.85633 0.36627 -0.41500
O 	O 	0.21602 0.62913 0.36849 -0.40200
Ni	Ni	0.35026 0.84280 0.36329 1.06300
O 	O 	0.20925 0.64139 0.46073 -0.42100
O 	O 	0.35948 0.86095 0.40892 -0.41500
O 	O 	0.43168 0.74266 0.36070 -0.38800
O 	O 	0.30008 0.69767 0.42116 -0.70200
O 	O 	0.16688 0.67445 0.42040 -0.37400
O 	O 	0.40579 0.66363 0.41548 -0.37500
O 	O 	0.31924 0.57341 0.41634 -0.41900
Ni	Ni	0.26291 0.60804 0.43802 1.07000
H 	H 	0.30497 0.72366 0.34769 0.15300
H 	H 	0.31127 0.73071 0.43816 0.15500
C 	C 	0.39774 0.84780 0.42535 0.28400
O 	O 	0.19620 0.55729 0.40821 -0.40900
C 	C 	0.22132 0.81356 0.35515 0.29400
C 	C 	0.45119 0.80298 0.34859 0.29400
C 	C 	0.19751 0.56794 0.37893 0.32400
C 	C 	0.37526 0.60093 0.42292 0.27200
C 	C 	0.16356 0.64704 0.44756 0.28800
O 	O 	0.41687 0.80197 0.41641 -0.37200
O 	O 	0.43492 0.85062 0.35941 -0.41300
Ni	Ni	0.38361 0.74990 0.11588 1.10100
O 	O 	0.31795 0.70272 0.08501 -0.70300
Ni	Ni	0.24946 0.70389 0.10747 1.09800
O 	O 	0.43933 0.70953 0.09865 -0.37300
O 	O 	0.36647 0.60557 0.09937 -0.42000
O 	O 	0.41930 0.82986 0.08699 -0.37200
Ni	Ni	0.30016 0.61032 0.07206 1.07100
O 	O 	0.42063 0.89552 0.13989 -0.41600
O 	O 	0.23539 0.55110 0.10004 -0.40200
O 	O 	0.18335 0.63831 0.08051 -0.37800
O 	O 	0.31684 0.76363 0.13486 -0.70600
O 	O 	0.44450 0.80385 0.14726 -0.38700
O 	O 	0.19155 0.73023 0.13169 -0.37800
O 	O 	0.24489 0.84191 0.12317 -0.41800
Ni	Ni	0.33191 0.85853 0.13228 1.06300
H 	H 	0.32267 0.73014 0.06666 0.15500
H 	H 	0.31239 0.74888 0.15620 0.15400
C 	C 	0.22831 0.56555 0.12835 0.32300
O 	O 	0.34214 0.86131 0.08660 -0.41900
C 	C 	0.42073 0.64433 0.09336 0.26800
C 	C 	0.19002 0.62185 0.05212 0.28400
C 	C 	0.39031 0.86278 0.07451 0.28500
C 	C 	0.19995 0.79402 0.13561 0.28900
C 	C 	0.44990 0.86544 0.15503 0.29400
O 	O 	0.24115 0.62811 0.13714 -0.40100
O 	O 	0.23849 0.61601 0.04322 -0.41600
C 	C 	0.92918 0.05980 0.21746 -0.05200
H 	H 	0.92907 0.06264 0.19233 0.04000
C 	C 	0.92667 0.05517 0.27781 -0.05000
H 	H 	0.92521 0.05304 0.30300 0.04100
C 	C 	0.94987 0.00748 0.23160 0.00700
C 	C 	0.96771 0.12593 0.23378 0.00300
C 	C 	0.86878 0.04318 0.23117 0.00700
C 	C 	0.94854 0.00545 0.26275 -0.00000
C 	C 	0.96609 0.12342 0.26499 0.00500
C 	C 	0.86756 0.03984 0.26236 0.00300
C 	C 	0.13109 0.39111 0.15601 0.00300
C 	C 	0.07869 0.35206 0.14094 -0.03500
C 	C 	0.10128 0.31714 0.19925 -0.05100
C 	C 	0.14228 0.37344 0.18524 -0.03600
C 	C 	0.17663 0.44548 0.13960 0.01000
C 	C 	0.19426 0.51027 0.14869 -0.14800
H 	H 	0.06998 0.36479 0.11823 0.04000
H 	H 	0.99679 0.26723 0.14329 0.03900
H 	H 	0.11051 0.30401 0.22174 0.03900
H 	H 	0.18303 0.40259 0.19689 0.03600
H 	H 	0.95703 0.21470 0.19579 0.04200
H 	H 	0.05947 0.18409 0.22062 0.03900
H 	H 	0.19092 0.43307 0.11805 0.03500
H 	H 	0.18009 0.52257 0.17032 0.07700
C 	C 	0.71173 0.00370 0.21140 0.02800
C 	C 	0.66929 0.03077 0.21440 -0.05400
C 	C 	0.61057 0.99065 0.20875 -0.03200
C 	C 	0.59386 0.92356 0.19885 0.00300
C 	C 	0.63583 0.89568 0.19704 -0.03400
C 	C 	0.69436 0.93523 0.20346 -0.04700
C 	C 	0.53288 0.88257 0.18941 0.00600
C 	C 	0.50257 0.90878 0.17210 -0.14700
C 	C 	0.77295 0.04528 0.22037 -0.05100
C 	C 	0.81865 0.02617 0.21258 -0.04100
H 	H 	0.68170 0.08260 0.22170 0.03800
H 	H 	0.57817 0.01171 0.21206 0.03000
H 	H 	0.62319 0.84346 0.19031 0.03800
H 	H 	0.72582 0.91223 0.20278 0.04100
H 	H 	0.51546 0.82877 0.19336 0.03400
H 	H 	0.51937 0.96263 0.16843 0.07300
H 	H 	0.78176 0.08832 0.23550 0.04100
H 	H 	0.81747 0.00251 0.19059 0.03800
C 	C 	0.06016 0.90162 0.13235 -0.03500
C 	C 	0.09955 0.88614 0.15061 0.00100
C 	C 	0.10450 0.90250 0.18170 -0.03500
C 	C 	0.07095 0.93470 0.19428 -0.05400
C 	C 	0.14158 0.86256 0.13627 0.00400
C 	C 	0.15220 0.81077 0.14754 -0.14800
C 	C 	0.96897 0.96705 0.21508 -0.03700
H 	H 	0.99625 0.94550 0.13066 0.03900
H 	H 	0.05671 0.89028 0.10824 0.03600
H 	H 	0.13600 0.89274 0.19587 0.03200
H 	H 	0.07709 0.94978 0.21798 0.04200
H 	H 	0.16406 0.88789 0.11616 0.03500
H 	H 	0.12577 0.78101 0.16570 0.07200
H 	H 	0.96784 0.92078 0.22515 0.03900
C 	C 	0.71409 0.93811 0.29143 0.02800
C 	C 	0.68643 0.87424 0.30396 -0.05100
C 	C 	0.63138 0.85558 0.31680 -0.03400
C 	C 	0.60264 0.90005 0.31645 0.00200
C 	C 	0.62989 0.96348 0.30345 -0.03700
C 	C 	0.68517 0.98239 0.29092 -0.04700
C 	C 	0.54688 0.88347 0.33246 0.00600
C 	C 	0.50324 0.82242 0.32946 -0.14600
C 	C 	0.77154 0.95645 0.27696 -0.04900
C 	C 	0.81339 0.01860 0.28025 -0.03900
H 	H 	0.70794 0.83938 0.30416 0.04000
H 	H 	0.61165 0.80718 0.32752 0.04000
H 	H 	0.60835 0.99831 0.30317 0.03300
H 	H 	0.70534 0.03130 0.28072 0.03900
H 	H 	0.54151 0.92189 0.34672 0.03600
H 	H 	0.50813 0.78457 0.31464 0.07000
H 	H 	0.77929 0.91914 0.26299 0.04300
H 	H 	0.80827 0.05402 0.29644 0.03700
C 	C 	0.05339 0.29239 0.30237 0.03000
C 	C 	0.09687 0.35078 0.29132 -0.05300
C 	C 	0.13292 0.40022 0.31144 -0.03300
C 	C 	0.12382 0.39327 0.34283 -0.00000
C 	C 	0.08091 0.33440 0.35394 -0.03400
C 	C 	0.15747 0.44863 0.36403 0.01300
C 	C 	0.16476 0.51217 0.35808 -0.15500
H 	H 	0.10259 0.35804 0.26716 0.04000
H 	H 	0.16725 0.44446 0.30262 0.03500
H 	H 	0.07390 0.32829 0.37811 0.03600
H 	H 	0.17364 0.43693 0.38530 0.03100
H 	H 	0.14729 0.52340 0.33711 0.08000
H 	H 	0.99385 0.25675 0.26250 0.04500
C 	C 	0.08240 0.98383 0.29487 0.03200
C 	C 	0.12725 0.02158 0.31517 -0.05600
C 	C 	0.16678 0.99536 0.32596 -0.03100
C 	C 	0.16197 0.93131 0.31641 -0.00200
C 	C 	0.11843 0.89458 0.29514 -0.03400
C 	C 	0.07847 0.92039 0.28468 -0.05400
C 	C 	0.20268 0.90306 0.32883 0.00600
C 	C 	0.18286 0.83966 0.33890 -0.15000
C 	C 	0.98557 0.97889 0.28026 -0.03600
H 	H 	0.13142 0.07119 0.32262 0.04100
H 	H 	0.20078 0.02455 0.34198 0.03400
H 	H 	0.11574 0.84625 0.28662 0.03400
H 	H 	0.24827 0.93604 0.33207 0.02300
H 	H 	0.13701 0.80728 0.33613 0.07900
H 	H 	0.06228 0.06470 0.27347 0.04400
H 	H 	0.96593 0.92936 0.29013 0.03700
C 	C 	0.54996 0.13152 0.56817 -0.07600
C 	C 	0.48974 0.09403 0.56856 0.00500
C 	C 	0.46368 0.04080 0.54804 -0.05300
C 	C 	0.49724 0.02692 0.52546 0.00300
C 	C 	0.55869 0.06045 0.52705 0.00800
C 	C 	0.58462 0.11341 0.54807 -0.02100
C 	C 	0.59349 0.04015 0.50796 -0.04400
C 	C 	0.56794 0.98824 0.48674 -0.03900
C 	C 	0.50718 0.95855 0.48293 0.00600
C 	C 	0.47119 0.97914 0.50169 0.00600
C 	C 	0.41102 0.95581 0.49467 -0.05500
C 	C 	0.38689 0.90965 0.47097 0.00200
C 	C 	0.42230 0.88815 0.45294 -0.07800
C 	C 	0.48220 0.91154 0.45931 -0.01700
H 	H 	0.46326 0.10499 0.58539 0.04000
H 	H 	0.41835 0.00865 0.55088 0.04000
H 	H 	0.63154 0.14076 0.54865 0.03600
H 	H 	0.64056 0.06435 0.50968 0.03700
H 	H 	0.59561 0.97272 0.47243 0.03800
H 	H 	0.38341 0.97634 0.50602 0.04200
H 	H 	0.34069 0.89247 0.46587 0.02900
H 	H 	0.50977 0.89598 0.44491 0.04700
C 	C 	0.84482 0.44965 0.54104 -0.07100
C 	C 	0.84299 0.45294 0.50929 -0.00000
C 	C 	0.89352 0.48833 0.49325 -0.05300
C 	C 	0.94793 0.51793 0.50860 0.00300
C 	C 	0.94931 0.51710 0.54075 0.00800
C 	C 	0.89812 0.48174 0.55668 -0.01800
C 	C 	0.05679 0.57909 0.44623 0.00400
C 	C 	0.10694 0.61913 0.46275 -0.07200
C 	C 	0.10444 0.62507 0.49434 -0.01900
H 	H 	0.80195 0.42979 0.49699 0.03300
H 	H 	0.88926 0.49581 0.46932 0.04000
H 	H 	0.89948 0.48123 0.58126 0.04900
H 	H 	0.09099 0.62053 0.55418 0.03700
H 	H 	0.96889 0.50805 0.44803 0.04100
H 	H 	0.05899 0.57205 0.42198 0.04200
H 	H 	0.14353 0.65518 0.50718 0.03800
C 	C 	0.40126 0.56602 0.44316 -0.08400
C 	C 	0.46135 0.58215 0.44283 0.00700
C 	C 	0.48730 0.55472 0.46409 -0.05500
C 	C 	0.45289 0.50814 0.48544 0.00400
C 	C 	0.39250 0.49401 0.48650 0.00400
C 	C 	0.36682 0.52126 0.46477 -0.02000
C 	C 	0.35905 0.45597 0.51024 -0.04300
C 	C 	0.38525 0.43404 0.53354 -0.04000
C 	C 	0.44459 0.44602 0.53253 0.00300
C 	C 	0.47799 0.47923 0.50738 0.00900
C 	C 	0.53472 0.48078 0.50436 -0.06200
C 	C 	0.56067 0.45983 0.52808 0.01200
C 	C 	0.52959 0.43363 0.55444 -0.09200
C 	C 	0.47096 0.42444 0.55621 -0.00800
H 	H 	0.48842 0.61767 0.42662 0.03900
H 	H 	0.53427 0.57314 0.46498 0.04100
H 	H 	0.32053 0.51012 0.46558 0.00900
H 	H 	0.31290 0.44529 0.51119 0.03200
H 	H 	0.35913 0.40707 0.55230 0.03700
H 	H 	0.55779 0.49495 0.48331 0.04000
H 	H 	0.60482 0.46290 0.52576 -0.02500
H 	H 	0.44621 0.40144 0.57607 0.04000
C 	C 	0.93940 0.16001 0.71959 0.03000
C 	C 	0.94251 0.22532 0.72527 -0.05100
C 	C 	0.89594 0.24265 0.71711 -0.03400
C 	C 	0.84613 0.19504 0.70268 0.00000
C 	C 	0.84205 0.12921 0.69799 -0.03600
C 	C 	0.88819 0.11157 0.70643 -0.05100
C 	C 	0.79836 0.21383 0.69191 0.00700
C 	C 	0.80960 0.26883 0.67513 -0.15000
C 	C 	0.98778 0.14139 0.73005 -0.05200
C 	C 	0.99184 0.08157 0.72016 -0.04100
H 	H 	0.98084 0.26255 0.73622 0.04000
H 	H 	0.89861 0.29301 0.72195 0.03600
H 	H 	0.80314 0.09169 0.68763 0.03400
H 	H 	0.88316 0.05980 0.70365 0.04000
H 	H 	0.75364 0.17830 0.69458 0.01700
H 	H 	0.85420 0.30476 0.67264 0.07900
H 	H 	0.97649 0.06261 0.69742 0.03800
C 	C 	0.25448 0.04942 0.71402 0.03000
C 	C 	0.30535 0.06772 0.73196 -0.05300
C 	C 	0.36008 0.09974 0.71895 -0.03500
C 	C 	0.36446 0.11161 0.68767 0.00100
C 	C 	0.31370 0.09155 0.66957 -0.03500
C 	C 	0.25894 0.06076 0.68266 -0.05200
C 	C 	0.42207 0.13850 0.67324 0.00600
C 	C 	0.46115 0.20080 0.67995 -0.14400
C 	C 	0.19688 0.01504 0.72802 -0.05400
C 	C 	0.15055 0.03468 0.72167 -0.03900
H 	H 	0.30250 0.05696 0.75596 0.04300
H 	H 	0.39903 0.11379 0.73304 0.03200
H 	H 	0.31670 0.09918 0.64531 0.03800
H 	H 	0.22019 0.04430 0.66832 0.04000
H 	H 	0.43060 0.10929 0.65511 0.03700
H 	H 	0.45070 0.23212 0.69633 0.06700
H 	H 	0.19190 0.97698 0.74489 0.04400
H 	H 	0.15263 0.06506 0.70192 0.03800
C 	C 	0.91884 0.79288 0.67571 0.02900
C 	C 	0.92505 0.78488 0.64453 -0.05200
C 	C 	0.88397 0.73051 0.62847 -0.03300
C 	C 	0.83669 0.68325 0.64354 0.00100
C 	C 	0.82909 0.69280 0.67450 -0.03400
C 	C 	0.87071 0.74622 0.69067 -0.05100
C 	C 	0.79656 0.62264 0.62702 0.01400
C 	C 	0.78067 0.56147 0.63931 -0.15500
C 	C 	0.96507 0.84723 0.69296 -0.05600
C 	C 	0.95193 0.88069 0.71548 -0.03800
H 	H 	0.96207 0.82036 0.63279 0.04000
H 	H 	0.88976 0.72411 0.60450 0.03700
H 	H 	0.79161 0.65801 0.68617 0.03500
H 	H 	0.86618 0.75048 0.71492 0.03900
H 	H 	0.78402 0.62750 0.60376 0.03500
H 	H 	0.79443 0.55672 0.66234 0.07900
H 	H 	0.90675 0.87024 0.72063 0.03700
C 	C 	0.86776 0.45283 0.95609 -0.07700
C 	C 	0.90741 0.42182 0.95414 0.00800
C 	C 	0.96238 0.45154 0.96799 -0.05400
C 	C 	0.97941 0.51474 0.98294 0.00600
C 	C 	0.93810 0.54437 0.98592 0.00500
C 	C 	0.88323 0.51411 0.97182 -0.01200
C 	C 	0.95103 0.60218 0.00410 -0.04100
C 	C 	0.08160 0.52705 0.99079 -0.05400
C 	C 	0.13281 0.55287 0.00825 0.00500
C 	C 	0.13967 0.60115 0.03110 -0.07300
C 	C 	0.09695 0.62745 0.03473 -0.01700
H 	H 	0.89495 0.37345 0.94273 0.03400
H 	H 	0.98983 0.42341 0.96851 0.04100
H 	H 	0.85217 0.53774 0.97343 0.02700
H 	H 	0.91951 0.62493 0.00639 0.03400
H 	H 	0.07931 0.49406 0.97180 0.04100
H 	H 	0.16692 0.53478 0.00418 0.03100
H 	H 	0.10374 0.66761 0.05118 0.04100
C 	C 	0.54624 0.16679 0.94408 -0.07700
C 	C 	0.48798 0.15002 0.95197 0.00200
C 	C 	0.46160 0.10008 0.97319 -0.05500
C 	C 	0.49268 0.06414 0.98604 0.00500
C 	C 	0.55292 0.08553 0.98017 0.00500
C 	C 	0.57896 0.13559 0.95873 -0.02100
C 	C 	0.58680 0.05793 0.99629 -0.04000
C 	C 	0.56173 0.00989 0.01837 -0.04600
C 	C 	0.50166 0.98548 0.02342 0.01200
C 	C 	0.46602 0.00972 0.00607 -0.00000
C 	C 	0.40487 0.97680 0.00805 -0.05100
C 	C 	0.38033 0.92764 0.02983 -0.00200
C 	C 	0.41604 0.90861 0.04918 -0.07400
C 	C 	0.47660 0.93618 0.04531 -0.02100
H 	H 	0.46291 0.17548 0.94157 0.04200
H 	H 	0.41818 0.09187 0.98046 0.04000
H 	H 	0.62470 0.15053 0.95359 0.03700
H 	H 	0.63306 0.07481 0.99218 0.03600
H 	H 	0.58902 0.99068 0.03123 0.04000
H 	H 	0.37622 0.98665 0.99200 0.03900
H 	H 	0.33337 0.90396 0.03150 0.03300
H 	H 	0.50427 0.92011 0.05960 0.05000
C 	C 	0.45531 0.61744 0.07427 -0.08400
C 	C 	0.50362 0.66124 0.05850 -0.00100
C 	C 	0.52943 0.63628 0.03615 -0.05500
C 	C 	0.50552 0.56713 0.02829 0.00100
C 	C 	0.46176 0.52235 0.04682 0.00600
C 	C 	0.43667 0.54777 0.06953 -0.03000
C 	C 	0.44348 0.45273 0.04248 -0.04500
C 	C 	0.46716 0.42702 0.01956 -0.04200
C 	C 	0.50728 0.47034 0.99949 0.00500
C 	C 	0.52539 0.54095 0.00298 0.00300
C 	C 	0.55961 0.58300 0.98015 -0.05600
C 	C 	0.58047 0.55585 0.95637 -0.00100
C 	C 	0.56549 0.48635 0.95411 -0.08500
C 	C 	0.52826 0.44368 0.97543 -0.02300
H 	H 	0.52086 0.71481 0.06327 0.04100
H 	H 	0.56902 0.67041 0.02599 0.04000
H 	H 	0.40175 0.51345 0.08298 0.03500
H 	H 	0.41099 0.41830 0.05708 0.03500
H 	H 	0.45308 0.37302 0.01688 0.03600
H 	H 	0.56781 0.63589 0.97977 0.03900
H 	H 	0.60752 0.58888 0.93936 0.03100
H 	H 	0.51598 0.38977 0.97345 0.04000
C 	C 	0.89186 0.08276 0.80105 0.02900
C 	C 	0.84585 0.08930 0.78470 -0.05100
C 	C 	0.81430 0.12377 0.79748 -0.03400
C 	C 	0.82709 0.14988 0.82717 0.00100
C 	C 	0.87216 0.14196 0.84382 -0.03500
C 	C 	0.90459 0.10879 0.83081 -0.05200
C 	C 	0.78859 0.17737 0.84226 0.00600
C 	C 	0.78367 0.23351 0.83235 -0.14700
C 	C 	0.92543 0.04694 0.78712 -0.05200
C 	C 	0.98394 0.07425 0.78752 -0.03900
H 	H 	0.83406 0.06696 0.76227 0.04100
H 	H 	0.77873 0.12829 0.78467 0.03200
H 	H 	0.88154 0.16072 0.86698 0.03700
H 	H 	0.93880 0.10225 0.84403 0.04000
H 	H 	0.76573 0.15286 0.86242 0.03500
H 	H 	0.81031 0.26136 0.81383 0.07100
H 	H 	0.90235 0.00176 0.77354 0.04300
C 	C 	0.24119 0.12859 0.80141 0.02900
C 	C 	0.28535 0.17322 0.78360 -0.05200
C 	C 	0.34377 0.19136 0.79198 -0.03500
C 	C 	0.35833 0.16649 0.81877 0.00100
C 	C 	0.31407 0.12419 0.83722 -0.03500
C 	C 	0.25574 0.10603 0.82882 -0.05200
C 	C 	0.41973 0.18356 0.82749 0.00600
C 	C 	0.45749 0.24802 0.82949 -0.14900
C 	C 	0.18043 0.10162 0.79004 -0.05300
C 	C 	0.14939 0.03502 0.78857 -0.03600
H 	H 	0.27449 0.19107 0.76246 0.04300
H 	H 	0.37763 0.22331 0.77733 0.03400
H 	H 	0.32493 0.10541 0.85810 0.03700
H 	H 	0.22188 0.07334 0.84327 0.04000
H 	H 	0.43187 0.14403 0.83633 0.03300
H 	H 	0.44449 0.28753 0.82144 0.07400
H 	H 	0.16411 0.13529 0.77865 0.04400
H 	H 	0.16547 0.00074 0.79953 0.03700
C 	C 	0.83923 0.68849 0.85689 0.00100
C 	C 	0.82518 0.69644 0.82661 -0.03400
C 	C 	0.85824 0.75488 0.81110 -0.05100
C 	C 	0.90544 0.80604 0.82579 0.02900
C 	C 	0.91834 0.79886 0.85624 -0.05200
C 	C 	0.88546 0.74037 0.87170 -0.03400
C 	C 	0.93964 0.86881 0.80991 -0.05500
C 	C 	0.96203 0.86679 0.78107 -0.04000
C 	C 	0.80384 0.62770 0.87388 0.01100
C 	C 	0.79002 0.56565 0.86197 -0.15000
H 	H 	0.78821 0.65794 0.81525 0.03500
H 	H 	0.84657 0.76085 0.78790 0.03900
H 	H 	0.95401 0.83850 0.86791 0.04000
H 	H 	0.89604 0.73528 0.89520 0.03600
H 	H 	0.94754 0.91660 0.82111 0.04200
H 	H 	0.94976 0.81854 0.76938 0.04000
H 	H 	0.79347 0.63372 0.89731 0.03200
H 	H 	0.80056 0.55952 0.83859 0.07800
