data_crystal

_cell_length_a 41.36501
_cell_length_b 41.12666
_cell_length_c 28.75256
_cell_angle_alpha 89.96454
_cell_angle_beta  89.95098
_cell_angle_gamma 87.67834

_symmetry_space_group_name_	'P 1'
_symmetry_space_group_name_H-M	'P 1'

loop_
_symmetry_equiv_pos_as_xyz
  x,y,z

loop_
_atom_site_label
_atom_site_type_symbol
_atom_site_fract_x
_atom_site_fract_y
_atom_site_fract_z
_atom_site_charge
C 	C 	0.46027 0.54921 0.02363 -0.03300
C 	C 	0.49147 0.56084 0.02281 -0.03600
C 	C 	0.45505 0.51600 0.01580 0.00600
C 	C 	0.48190 0.49412 0.00906 0.00400
C 	C 	0.51350 0.50604 0.00694 -0.01200
C 	C 	0.51834 0.53965 0.01371 0.01000
C 	C 	0.47716 0.46036 0.00409 -0.00300
C 	C 	0.50402 0.43905 0.99563 -0.02400
C 	C 	0.54020 0.48437 0.99789 0.01700
C 	C 	0.55007 0.55134 0.01131 0.00000
C 	C 	0.57620 0.52980 0.00147 -0.06000
C 	C 	0.57161 0.49666 0.99450 0.00200
C 	C 	0.42342 0.50416 0.01499 0.00100
C 	C 	0.41899 0.47072 0.01180 -0.05000
C 	C 	0.44544 0.44869 0.00700 0.00300
C 	C 	0.55652 0.58604 0.01913 0.00600
C 	C 	0.55335 0.60834 0.98231 -0.02600
C 	C 	0.56458 0.63980 0.98721 -0.03400
C 	C 	0.57930 0.64908 0.02885 0.03700
C 	C 	0.58149 0.62710 0.06618 -0.03300
C 	C 	0.56997 0.59578 0.06142 -0.03100
C 	C 	0.59991 0.47525 0.98301 0.01700
C 	C 	0.61768 0.45960 0.01862 -0.03800
C 	C 	0.64539 0.44053 0.00792 -0.04500
C 	C 	0.60997 0.47171 0.93664 -0.03200
C 	C 	0.63776 0.45275 0.92596 -0.03600
C 	C 	0.65556 0.43715 0.96158 0.04900
C 	C 	0.39470 0.52658 0.01424 0.00700
C 	C 	0.37607 0.53146 0.05458 -0.03000
C 	C 	0.34823 0.55182 0.05339 -0.03500
C 	C 	0.33888 0.56739 0.01184 0.03900
C 	C 	0.35751 0.56251 0.97152 -0.03100
C 	C 	0.38532 0.54213 0.97270 -0.02500
C 	C 	0.43938 0.41349 0.00614 0.00600
C 	C 	0.42654 0.39954 0.96600 -0.02500
C 	C 	0.41351 0.36871 0.96809 -0.02800
C 	C 	0.41321 0.35166 0.01034 0.03400
C 	C 	0.42820 0.36457 0.04959 -0.03300
C 	C 	0.44118 0.39542 0.04752 -0.03000
C 	C 	0.53507 0.45089 0.99233 -0.04200
H 	H 	0.54309 0.60100 0.94948 0.04700
H 	H 	0.56273 0.65661 0.95823 0.05700
H 	H 	0.59293 0.63398 0.09839 0.06000
H 	H 	0.57259 0.57868 0.08998 0.04700
H 	H 	0.35040 0.57447 0.93932 0.05800
H 	H 	0.39955 0.53834 0.94137 0.04800
H 	H 	0.33391 0.55549 0.08466 0.05800
H 	H 	0.38313 0.51941 0.08674 0.04900
H 	H 	0.42520 0.41325 0.93382 0.04800
H 	H 	0.40225 0.35879 0.93750 0.05700
H 	H 	0.45119 0.40593 0.07863 0.04700
H 	H 	0.42835 0.35141 0.08225 0.05600
H 	H 	0.61009 0.46234 0.05452 0.04600
H 	H 	0.65906 0.42854 0.03560 0.05500
H 	H 	0.59639 0.48385 0.90901 0.04800
H 	H 	0.64553 0.45029 0.89010 0.05900
H 	H 	0.44021 0.56615 0.03102 0.05500
H 	H 	0.49456 0.58644 0.02929 0.05400
H 	H 	0.60039 0.53894 0.99913 0.05700
H 	H 	0.55510 0.43381 0.98548 0.05600
H 	H 	0.50098 0.41324 0.99095 0.04800
H 	H 	0.39467 0.46176 0.01255 0.05800
Zn	Zn	0.32472 0.17141 0.01648 1.22300
C 	C 	0.33438 0.16171 0.11516 0.32900
O 	O 	0.28805 0.14409 0.03132 -0.42500
O 	O 	0.30421 0.17209 0.12132 -0.43600
O 	O 	0.25409 0.18750 0.04744 -0.50200
C 	C 	0.33834 0.23810 0.03686 0.35100
O 	O 	0.33328 0.21705 0.00357 -0.44900
O 	O 	0.32426 0.23504 0.07741 -0.48700
C 	C 	0.25862 0.15651 0.03754 0.35100
O 	O 	0.31303 0.16616 0.93625 -0.31200
Zn	Zn	0.28504 0.21108 0.08403 1.17500
O 	O 	0.34882 0.16661 0.07513 -0.42400
C 	C 	0.33836 0.14644 0.93549 0.29100
O 	O 	0.35297 0.14212 0.97492 -0.36200
C 	C 	0.48968 0.02483 0.48732 0.01300
C 	C 	0.51641 0.00194 0.48783 0.01300
C 	C 	0.46561 0.02347 0.52172 -0.05300
C 	C 	0.46799 0.99968 0.55682 0.01300
C 	C 	0.51882 0.97818 0.52297 -0.05300
C 	C 	0.49484 0.97694 0.55753 0.01300
H 	H 	0.53921 0.96081 0.52343 0.05400
H 	H 	0.44519 0.04080 0.52121 0.05300
C 	C 	0.49634 0.95288 0.59267 -0.01200
C 	C 	0.47362 0.95281 0.62894 0.01100
C 	C 	0.48524 0.93609 0.66938 -0.05500
C 	C 	0.51689 0.92317 0.66416 0.01000
S 	S 	0.53018 0.93378 0.61170 -0.00000
H 	H 	0.47242 0.93596 0.70218 0.05000
C 	C 	0.44374 0.99733 0.59118 -0.01300
C 	C 	0.44715 0.97525 0.62823 0.01100
C 	C 	0.42829 0.98451 0.66790 -0.05500
C 	C 	0.41020 0.01370 0.66134 0.01000
S 	S 	0.41892 0.02793 0.60864 -0.00100
H 	H 	0.43040 0.97256 0.70134 0.05000
C 	C 	0.51118 0.04936 0.41638 0.01100
C 	C 	0.48846 0.04919 0.45263 -0.01200
S 	S 	0.45496 0.06924 0.43430 -0.00300
C 	C 	0.46857 0.08045 0.38220 0.01000
C 	C 	0.49992 0.06696 0.37650 -0.05500
C 	C 	0.54062 0.00424 0.45337 -0.01300
C 	C 	0.53734 0.02657 0.41658 0.01100
C 	C 	0.55590 0.01728 0.37663 -0.05500
C 	C 	0.57369 0.98788 0.38276 0.00900
S 	S 	0.56500 0.97346 0.43536 0.00100
H 	H 	0.55363 0.02931 0.34327 0.05000
H 	H 	0.51261 0.06715 0.34361 0.04900
Zn	Zn	0.66117 0.83370 0.02602 1.22100
C 	C 	0.65720 0.84591 0.12476 0.33300
O 	O 	0.69893 0.86049 0.03592 -0.42500
O 	O 	0.68689 0.83370 0.12917 -0.43200
O 	O 	0.73253 0.81652 0.05067 -0.49300
C 	C 	0.64772 0.76731 0.04952 0.34900
O 	O 	0.65140 0.78808 0.01542 -0.44700
O 	O 	0.66283 0.77111 0.08904 -0.48300
C 	C 	0.72827 0.84759 0.04098 0.35100
O 	O 	0.66891 0.83748 0.94463 -0.30600
Zn	Zn	0.70304 0.79387 0.09114 1.17800
O 	O 	0.64037 0.83996 0.08712 -0.43700
C 	C 	0.64373 0.85740 0.94558 0.28900
O 	O 	0.63111 0.86252 0.98627 -0.37300
Zn	Zn	0.16018 0.66032 0.96604 1.22800
C 	C 	0.14066 0.66262 0.06236 0.32400
O 	O 	0.12910 0.69750 0.96612 -0.44200
O 	O 	0.14842 0.69331 0.06285 -0.44600
O 	O 	0.16827 0.73324 0.98066 -0.47900
C 	C 	0.22389 0.65028 0.00402 0.34700
O 	O 	0.20694 0.65221 0.96550 -0.44300
O 	O 	0.21621 0.66921 0.03929 -0.48600
C 	C 	0.13867 0.72750 0.96758 0.35700
O 	O 	0.16307 0.66319 0.88397 -0.30500
Zn	Zn	0.18959 0.70852 0.03040 1.17600
O 	O 	0.15088 0.64337 0.02838 -0.42600
C 	C 	0.14619 0.63726 0.88476 0.28800
O 	O 	0.13879 0.62672 0.92568 -0.36300
C 	C 	0.02475 0.50022 0.49895 0.01200
C 	C 	0.00160 0.47557 0.49873 0.01300
C 	C 	0.02268 0.52539 0.46586 -0.05300
C 	C 	0.99792 0.52614 0.43236 0.01200
C 	C 	0.97689 0.47627 0.46516 -0.05300
C 	C 	0.97493 0.50134 0.43191 0.01300
H 	H 	0.95934 0.45743 0.46490 0.05300
H 	H 	0.04022 0.54424 0.46615 0.05300
C 	C 	0.94999 0.50292 0.39831 -0.01200
C 	C 	0.94925 0.52653 0.36302 0.01100
C 	C 	0.93135 0.51732 0.32315 -0.05500
C 	C 	0.91830 0.48661 0.32772 0.01000
S 	S 	0.93004 0.47113 0.37903 -0.00300
H 	H 	0.93084 0.53072 0.29077 0.04900
C 	C 	0.99498 0.55149 0.39924 -0.01200
C 	C 	0.97201 0.55093 0.36338 0.01100
C 	C 	0.98053 0.56963 0.32380 -0.05500
C 	C 	0.01007 0.58465 0.32917 0.01000
S 	S 	0.02535 0.57370 0.38088 -0.00300
H 	H 	0.96781 0.56919 0.29098 0.04900
C 	C 	0.05072 0.47478 0.56743 0.01100
C 	C 	0.04993 0.49841 0.53216 -0.01200
S 	S 	0.07019 0.53004 0.55123 -0.00300
C 	C 	0.08205 0.51454 0.60248 0.01000
C 	C 	0.06882 0.48391 0.60716 -0.05500
C 	C 	0.00446 0.45028 0.53193 -0.01300
C 	C 	0.02780 0.45054 0.56733 0.01100
C 	C 	0.01942 0.43187 0.60699 -0.05400
C 	C 	0.98954 0.41732 0.60228 0.01000
S 	S 	0.97391 0.42858 0.55099 -0.00100
H 	H 	0.03292 0.43146 0.63919 0.04900
H 	H 	0.06925 0.47059 0.63961 0.04900
Zn	Zn	0.83721 0.34482 0.96250 1.22700
C 	C 	0.85202 0.34393 0.86430 0.33100
O 	O 	0.79078 0.35554 0.96868 -0.44700
O 	O 	0.84144 0.31424 0.86235 -0.43300
O 	O 	0.77741 0.34157 0.89500 -0.48500
C 	C 	0.85393 0.27704 0.95711 0.35400
O 	O 	0.86557 0.30623 0.95742 -0.43000
O 	O 	0.82355 0.27315 0.94614 -0.50000
C 	C 	0.77192 0.35926 0.93227 0.35000
O 	O 	0.84069 0.33807 0.04409 -0.31700
Zn	Zn	0.80167 0.30036 0.89956 1.17700
O 	O 	0.84492 0.36270 0.90023 -0.42100
C 	C 	0.85484 0.36568 0.04351 0.28900
O 	O 	0.85810 0.37875 0.00289 -0.36600
C 	C 	0.93304 0.00854 0.03076 -0.03600
C 	C 	0.94509 0.03971 0.03212 -0.03800
C 	C 	0.95395 0.98116 0.02310 0.00800
C 	C 	0.98769 0.98542 0.01906 -0.00500
C 	C 	0.99996 0.01699 0.02179 -0.00300
C 	C 	0.97839 0.04437 0.02594 0.00800
C 	C 	0.00911 0.95818 0.01201 0.01100
C 	C 	0.04272 0.96271 0.00998 -0.03900
C 	C 	0.03379 0.02116 0.01999 0.00600
C 	C 	0.99059 0.07599 0.02423 -0.00200
C 	C 	0.02402 0.07993 0.02417 -0.04700
C 	C 	0.04573 0.05295 0.02287 -0.00100
C 	C 	0.94186 0.94950 0.01953 -0.00200
C 	C 	0.96318 0.92288 0.01116 -0.04300
C 	C 	0.99647 0.92687 0.00714 -0.01100
C 	C 	0.96881 0.10495 0.01754 0.01000
C 	C 	0.95246 0.10962 0.97518 -0.02800
C 	C 	0.93337 0.13788 0.96767 -0.03000
C 	C 	0.93084 0.16192 0.00219 0.02800
C 	C 	0.94724 0.15733 0.04452 -0.02800
C 	C 	0.96601 0.12883 0.05228 -0.03300
C 	C 	0.08082 0.05860 0.02483 0.00800
C 	C 	0.09466 0.06868 0.06669 -0.03200
C 	C 	0.12565 0.08105 0.06688 -0.03900
C 	C 	0.09906 0.05906 0.98364 -0.02600
C 	C 	0.13035 0.07079 0.98402 -0.02600
C 	C 	0.14320 0.08315 0.02528 0.03400
C 	C 	0.90699 0.94357 0.02467 0.00900
C 	C 	0.89568 0.92933 0.06562 -0.03100
C 	C 	0.86458 0.91729 0.06728 -0.03700
C 	C 	0.84446 0.91954 0.02805 0.03500
C 	C 	0.85494 0.93576 0.98815 -0.02600
C 	C 	0.88623 0.94745 0.98630 -0.02500
C 	C 	0.01767 0.89805 0.99708 0.02800
C 	C 	0.01988 0.88579 0.95163 -0.03400
C 	C 	0.03824 0.85724 0.94258 -0.03700
C 	C 	0.05457 0.84083 0.97891 0.04700
C 	C 	0.05290 0.85349 0.02420 -0.03700
C 	C 	0.03416 0.88176 0.03336 -0.04000
C 	C 	0.05489 0.99366 0.01485 -0.03700
H 	H 	0.95476 0.09142 0.94801 0.04800
H 	H 	0.92083 0.14131 0.93486 0.05300
H 	H 	0.94555 0.17589 0.07123 0.05900
H 	H 	0.97871 0.12548 0.08498 0.04800
H 	H 	0.83937 0.93808 0.95795 0.06100
H 	H 	0.89472 0.95847 0.95456 0.04900
H 	H 	0.85654 0.90516 0.09842 0.05400
H 	H 	0.91151 0.92632 0.09545 0.04700
H 	H 	0.00707 0.89820 0.92349 0.05100
H 	H 	0.03958 0.84772 0.90747 0.05700
H 	H 	0.03245 0.89104 0.06857 0.04900
H 	H 	0.06578 0.84117 0.05234 0.05600
H 	H 	0.08080 0.06835 0.09866 0.04500
H 	H 	0.13554 0.09011 0.09903 0.05200
H 	H 	0.08860 0.05131 0.95115 0.04900
H 	H 	0.14399 0.07167 0.95190 0.06100
H 	H 	0.90734 0.00586 0.03570 0.04700
H 	H 	0.92844 0.06019 0.03868 0.05200
H 	H 	0.03325 0.10426 0.02406 0.05500
H 	H 	0.08083 0.99610 0.01402 0.04400
H 	H 	0.05964 0.94227 0.00483 0.04400
H 	H 	0.95374 0.89875 0.00777 0.05900
C 	C 	0.91200 0.19241 0.99321 0.00700
C 	C 	0.88157 0.19829 0.01421 0.12800
C 	C 	0.86315 0.22646 0.00306 -0.02600
C 	C 	0.87460 0.24870 0.97055 -0.11800
C 	C 	0.90509 0.24280 0.94955 0.20500
C 	C 	0.92375 0.21493 0.96141 -0.10400
H 	H 	0.83971 0.23087 0.01927 0.07000
H 	H 	0.94709 0.21034 0.94499 0.08800
Cl	Cl	0.86574 0.17000 0.05330 -0.32200
Cl	Cl	0.91932 0.26892 0.90611 -0.32300
C 	C 	0.93041 0.38918 0.71529 0.05600
N 	N 	0.93222 0.37126 0.67545 -0.10400
C 	C 	0.95103 0.38000 0.63901 0.02600
C 	C 	0.96945 0.40777 0.64197 -0.00900
C 	C 	0.96799 0.42650 0.68266 -0.01600
C 	C 	0.94868 0.41705 0.71961 -0.05500
H 	H 	0.95183 0.36523 0.60784 0.03900
H 	H 	0.98160 0.44836 0.68557 0.04000
H 	H 	0.94812 0.43108 0.75150 0.05200
C 	C 	0.87209 0.35613 0.82623 -0.10400
C 	C 	0.87101 0.38927 0.81489 0.04100
C 	C 	0.89005 0.40035 0.77862 -0.07800
C 	C 	0.91047 0.37820 0.75428 0.07200
N 	N 	0.91096 0.34600 0.76556 -0.11100
C 	C 	0.89247 0.33465 0.80072 0.07800
H 	H 	0.85514 0.40629 0.83363 0.04700
H 	H 	0.88864 0.42586 0.76909 0.05900
H 	H 	0.89379 0.30895 0.80905 0.05200
C 	C 	0.89150 0.43148 0.20975 0.05500
N 	N 	0.87634 0.46071 0.21952 -0.10400
C 	C 	0.88432 0.47834 0.25757 0.02500
C 	C 	0.90883 0.46677 0.28767 -0.01000
C 	C 	0.92495 0.43692 0.27799 -0.01600
C 	C 	0.91630 0.41920 0.23891 -0.05600
H 	H 	0.87172 0.50145 0.26432 0.03800
H 	H 	0.94453 0.42782 0.30000 0.04100
H 	H 	0.92916 0.39643 0.23084 0.05000
C 	C 	0.86473 0.38207 0.08660 -0.08900
C 	C 	0.86748 0.36474 0.12847 0.03300
C 	C 	0.87649 0.38068 0.16895 -0.07600
C 	C 	0.88288 0.41390 0.16722 0.07000
N 	N 	0.87981 0.43041 0.12627 -0.11100
C 	C 	0.87115 0.41532 0.08631 0.07100
H 	H 	0.86268 0.33906 0.12970 0.04400
H 	H 	0.87814 0.36743 0.20149 0.05600
H 	H 	0.86891 0.42928 0.05446 0.05000
C 	C 	0.07364 0.81052 0.96957 -0.00900
C 	C 	0.06387 0.78065 0.98762 0.13800
C 	C 	0.08454 0.75301 0.98440 -0.01700
C 	C 	0.11480 0.75479 0.96263 -0.12400
C 	C 	0.12316 0.78394 0.94069 0.20300
C 	C 	0.10277 0.81175 0.94481 -0.10000
H 	H 	0.07757 0.73045 0.00035 0.07200
H 	H 	0.10983 0.83447 0.92943 0.08300
Cl	Cl	0.02579 0.77753 0.01442 -0.31900
Cl	Cl	0.15845 0.78566 0.90655 -0.32300
C 	C 	0.11873 0.58788 0.76179 0.07000
N 	N 	0.11974 0.57225 0.80358 -0.11000
C 	C 	0.12830 0.58772 0.84328 0.07100
C 	C 	0.13679 0.62041 0.84185 -0.08600
C 	C 	0.13630 0.63675 0.79909 0.03300
C 	C 	0.12730 0.62048 0.75890 -0.07400
H 	H 	0.12883 0.57450 0.87586 0.05100
H 	H 	0.14273 0.66199 0.79699 0.04700
H 	H 	0.12723 0.63298 0.72572 0.05700
C 	C 	0.09172 0.53440 0.64245 -0.01000
C 	C 	0.07673 0.56498 0.65097 -0.01600
C 	C 	0.08575 0.58288 0.68967 -0.05600
C 	C 	0.10974 0.57002 0.71971 0.05600
N 	N 	0.12376 0.54007 0.71115 -0.10300
C 	C 	0.11544 0.52227 0.67342 0.02500
H 	H 	0.05774 0.57458 0.62831 0.04100
H 	H 	0.07382 0.60629 0.69677 0.05100
H 	H 	0.12720 0.49862 0.66756 0.03900
C 	C 	0.08499 0.62628 0.17421 0.07100
N 	N 	0.08561 0.65883 0.16571 -0.11400
C 	C 	0.10305 0.67085 0.12989 0.07400
C 	C 	0.12090 0.64964 0.10041 -0.10800
C 	C 	0.11996 0.61602 0.10798 0.04000
C 	C 	0.10182 0.60427 0.14476 -0.07900
H 	H 	0.10291 0.69688 0.12424 0.03600
H 	H 	0.13338 0.59907 0.08571 0.04800
H 	H 	0.10071 0.57827 0.15023 0.05800
C 	C 	0.02989 0.59492 0.28957 -0.01000
C 	C 	0.06072 0.58062 0.28164 -0.01600
C 	C 	0.07888 0.59060 0.24377 -0.05600
C 	C 	0.06583 0.61449 0.21352 0.05500
N 	N 	0.03584 0.62816 0.22190 -0.10300
C 	C 	0.01773 0.61882 0.25877 0.02500
H 	H 	0.07049 0.56171 0.30446 0.04100
H 	H 	0.10302 0.58011 0.23823 0.04900
H 	H 	0.99394 0.63013 0.26430 0.03900
C 	C 	0.75662 0.86776 0.03446 -0.11700
C 	C 	0.75930 0.89733 0.05876 0.20100
C 	C 	0.78757 0.91479 0.05482 -0.10000
C 	C 	0.81354 0.90274 0.02763 -0.00600
C 	C 	0.81076 0.87333 0.00309 0.13200
C 	C 	0.78230 0.85620 0.00628 -0.02900
H 	H 	0.78969 0.93728 0.07401 0.08500
H 	H 	0.78040 0.83350 0.98754 0.08000
Cl	Cl	0.72846 0.91173 0.09674 -0.32000
Cl	Cl	0.84331 0.85688 0.96992 -0.30900
C 	C 	0.57739 0.89861 0.77948 0.05600
N 	N 	0.55864 0.92664 0.77949 -0.10300
C 	C 	0.53963 0.93528 0.74250 0.02500
C 	C 	0.53861 0.91498 0.70337 -0.00900
C 	C 	0.55800 0.88635 0.70239 -0.01500
C 	C 	0.57730 0.87795 0.74062 -0.05500
H 	H 	0.52524 0.95785 0.74360 0.03800
H 	H 	0.55757 0.87030 0.67254 0.04200
H 	H 	0.59142 0.85519 0.74056 0.05100
C 	C 	0.62768 0.86934 0.90260 -0.08900
C 	C 	0.64349 0.86648 0.85959 0.03400
C 	C 	0.62738 0.87644 0.81910 -0.07500
C 	C 	0.59535 0.88891 0.82185 0.07000
N 	N 	0.58072 0.89241 0.86412 -0.11100
C 	C 	0.59602 0.88298 0.90409 0.07000
H 	H 	0.66812 0.85659 0.85749 0.04600
H 	H 	0.63969 0.87453 0.78588 0.05700
H 	H 	0.58340 0.88572 0.93694 0.04500
C 	C 	0.61746 0.90560 0.23310 0.07400
N 	N 	0.63894 0.88052 0.24276 -0.11400
C 	C 	0.65159 0.86095 0.20859 0.08100
C 	C 	0.64278 0.86637 0.16203 -0.10500
C 	C 	0.62082 0.89209 0.15135 0.04800
C 	C 	0.60828 0.91194 0.18686 -0.07900
H 	H 	0.66845 0.84113 0.21764 0.02900
H 	H 	0.61402 0.89711 0.11560 0.04000
H 	H 	0.59207 0.93244 0.17845 0.05900
C 	C 	0.58430 0.96674 0.34398 -0.00900
C 	C 	0.56225 0.95727 0.31018 -0.01700
C 	C 	0.57284 0.93719 0.27372 -0.05500
C 	C 	0.60562 0.92703 0.27108 0.05500
N 	N 	0.62654 0.93604 0.30488 -0.10200
C 	C 	0.61662 0.95548 0.34089 0.02600
H 	H 	0.53699 0.96518 0.31239 0.04100
H 	H 	0.55569 0.92928 0.24806 0.05000
H 	H 	0.63392 0.96230 0.36703 0.04000
C 	C 	0.17383 0.10051 0.02438 -0.00700
C 	C 	0.17527 0.13130 0.00307 0.13200
C 	C 	0.20360 0.14865 0.00584 -0.03000
C 	C 	0.23040 0.13612 0.03094 -0.11800
C 	C 	0.22899 0.10527 0.05227 0.20100
C 	C 	0.20094 0.08748 0.04827 -0.10100
H 	H 	0.20451 0.17231 0.98937 0.07600
H 	H 	0.19986 0.06394 0.06505 0.08300
Cl	Cl	0.14116 0.14929 0.97498 -0.31600
Cl	Cl	0.26111 0.08961 0.08697 -0.32200
C 	C 	0.37849 0.07412 0.77366 0.05600
N 	N 	0.40966 0.06212 0.77153 -0.10300
C 	C 	0.42035 0.04302 0.73558 0.02500
C 	C 	0.39911 0.03492 0.69980 -0.00900
C 	C 	0.36711 0.04715 0.70114 -0.01600
C 	C 	0.35660 0.06659 0.73833 -0.05500
H 	H 	0.44534 0.03411 0.73483 0.03800
H 	H 	0.35030 0.04117 0.67387 0.04200
H 	H 	0.33154 0.07519 0.74018 0.05000
C 	C 	0.34840 0.12824 0.89331 -0.08800
C 	C 	0.33821 0.13895 0.84925 0.03500
C 	C 	0.34797 0.12143 0.80980 -0.07500
C 	C 	0.36756 0.09296 0.81477 0.07100
N 	N 	0.37754 0.08316 0.85787 -0.11000
C 	C 	0.36843 0.09997 0.89680 0.07200
H 	H 	0.32312 0.16094 0.84550 0.04400
H 	H 	0.34069 0.13009 0.77565 0.05600
H 	H 	0.37661 0.09122 0.93049 0.04800
C 	C 	0.40864 0.11075 0.26887 0.05500
N 	N 	0.43614 0.12644 0.27905 -0.10400
C 	C 	0.45549 0.11703 0.31529 0.02500
C 	C 	0.44747 0.09060 0.34317 -0.01000
C 	C 	0.41962 0.07375 0.33284 -0.01600
C 	C 	0.40017 0.08374 0.29546 -0.05600
H 	H 	0.47709 0.13016 0.32252 0.03900
H 	H 	0.41335 0.05274 0.35316 0.04100
H 	H 	0.37897 0.07036 0.28682 0.05000
C 	C 	0.35285 0.14672 0.15427 -0.10300
C 	C 	0.33707 0.13779 0.19523 0.04100
C 	C 	0.35508 0.12537 0.23267 -0.07900
C 	C 	0.38884 0.12153 0.22873 0.07100
N 	N 	0.40372 0.13004 0.18849 -0.11200
C 	C 	0.38664 0.14223 0.15153 0.07600
H 	H 	0.31102 0.14076 0.19830 0.04100
H 	H 	0.34298 0.11943 0.26482 0.05600
H 	H 	0.39943 0.14894 0.12032 0.05000
C 	C 	0.39363 0.32263 0.01505 -0.00300
C 	C 	0.36103 0.32581 0.02903 0.13200
C 	C 	0.34303 0.29807 0.03521 -0.02100
C 	C 	0.35719 0.26699 0.02737 -0.12300
C 	C 	0.38971 0.26379 0.01274 0.20800
C 	C 	0.40774 0.29161 0.00657 -0.10900
H 	H 	0.31801 0.30067 0.04632 0.05400
H 	H 	0.43283 0.28908 0.99581 0.09300
Cl	Cl	0.34248 0.36448 0.03922 -0.32600
Cl	Cl	0.40859 0.22510 0.00403 -0.32600
C 	C 	0.30945 0.58862 0.01046 -0.01200
C 	C 	0.31078 0.62192 0.02111 0.13500
C 	C 	0.28265 0.64187 0.01906 -0.02000
C 	C 	0.25311 0.62888 0.00626 -0.12700
C 	C 	0.25174 0.59545 0.99607 0.21100
C 	C 	0.27991 0.57554 0.99805 -0.09500
H 	H 	0.28379 0.66755 0.02704 0.05800
H 	H 	0.27883 0.54984 0.99015 0.08700
Cl	Cl	0.34760 0.63896 0.03682 -0.32100
Cl	Cl	0.21468 0.57793 0.98272 -0.32500
C 	C 	0.68529 0.41786 0.95054 -0.00900
C 	C 	0.68374 0.38559 0.93472 0.13500
C 	C 	0.71228 0.36698 0.92702 -0.02100
C 	C 	0.74244 0.38021 0.93547 -0.12300
C 	C 	0.74399 0.41285 0.94982 0.20600
C 	C 	0.71544 0.43147 0.95737 -0.09900
H 	H 	0.71098 0.34192 0.91577 0.05500
H 	H 	0.71668 0.45648 0.96891 0.08600
Cl	Cl	0.64617 0.36789 0.92576 -0.32200
Cl	Cl	0.78152 0.43096 0.95734 -0.32300
C 	C 	0.59533 0.68049 0.03174 -0.00400
C 	C 	0.58336 0.70540 0.06150 0.13400
C 	C 	0.60048 0.73387 0.06673 -0.02100
C 	C 	0.62921 0.73800 0.04186 -0.12200
C 	C 	0.64069 0.71350 0.01113 0.20000
C 	C 	0.62376 0.68492 0.00624 -0.10700
H 	H 	0.59143 0.75279 0.09013 0.07100
H 	H 	0.63305 0.66585 0.98327 0.08900
Cl	Cl	0.54669 0.70148 0.09178 -0.31600
Cl	Cl	0.67695 0.71771 0.97991 -0.33400
