data_crystal

_cell_length_a 26.16542
_cell_length_b 27.21374
_cell_length_c 30.03956
_cell_angle_alpha 61.10848
_cell_angle_beta  118.55453
_cell_angle_gamma 133.16887

_symmetry_space_group_name_	'P 1'
_symmetry_space_group_name_H-M	'P 1'

loop_
_symmetry_equiv_pos_as_xyz
  x,y,z

loop_
_atom_site_label
_atom_site_type_symbol
_atom_site_fract_x
_atom_site_fract_y
_atom_site_fract_z
_atom_site_charge
Co	Co	0.07925 0.98565 0.15768 1.18300
Co	Co	0.02180 0.03947 0.18720 1.19200
Co	Co	0.06189 0.89516 0.10489 1.17000
C 	C 	0.03627 0.17107 0.16771 0.27100
O 	O 	0.10867 0.04494 0.19941 -0.45500
O 	O 	0.06888 0.14422 0.17641 -0.36800
O 	O 	0.02559 0.93785 0.11403 -0.76800
O 	O 	0.08534 0.90763 0.21768 -0.39200
Co	Co	0.09773 0.95281 0.68477 1.17900
Co	Co	0.06258 0.02779 0.71598 1.19100
C 	C 	0.08607 0.82212 0.71448 0.26400
Co	Co	0.07777 0.89222 0.60111 1.16900
O 	O 	0.09760 0.18104 0.69667 -0.37700
O 	O 	0.11467 0.98407 0.74291 -0.47700
O 	O 	0.05505 0.93468 0.62580 -0.76300
O 	O 	0.05844 0.81177 0.66746 -0.38400
O 	O 	0.07382 0.85411 0.72618 -0.38400
O 	O 	0.09195 0.97410 0.53621 -0.39000
C 	C 	0.02934 0.94625 0.93652 -0.05500
C 	C 	0.03207 0.96059 0.88582 0.16900
H 	H 	0.07213 0.94584 0.96926 0.05100
O 	O 	0.09015 0.97656 0.87824 -0.29700
C 	C 	0.07453 0.03574 0.37093 -0.02900
C 	C 	0.08433 0.03209 0.42243 0.17600
N 	N 	0.07470 0.71211 0.75869 -0.15100
H 	H 	0.06723 0.60659 0.75897 0.05500
H 	H 	0.02802 0.68562 0.73139 0.08900
H 	H 	0.03877 0.74750 0.24252 0.05400
C 	C 	0.03622 0.97398 0.50229 0.31100
O 	O 	0.03822 0.00184 0.64372 -0.55700
C 	C 	0.02534 0.98302 0.44630 -0.11500
H 	H 	0.03394 0.28469 0.09457 0.04900
C 	C 	0.09116 0.77342 0.26855 -0.04500
H 	H 	0.06132 0.65341 0.26957 0.05400
H 	H 	0.11968 0.07519 0.35237 0.05400
C 	C 	0.08002 0.24214 0.17253 0.00400
C 	C 	0.06740 0.29054 0.13357 -0.04200
C 	C 	0.08171 0.33089 0.15901 0.01000
H 	H 	0.08495 0.41752 0.09589 0.05500
H 	H 	0.07641 0.93158 0.88000 0.15000
C 	C 	0.14571 0.17100 0.73283 0.26700
H 	H 	0.15420 0.11813 0.44137 0.15000
C 	C 	0.12280 0.89185 0.21733 0.27500
O 	O 	0.14995 0.12454 0.73384 -0.36400
O 	O 	0.15152 0.07668 0.44921 -0.27900
H 	H 	0.10624 0.21972 0.25575 0.09000
O 	O 	0.13112 0.99482 0.06543 -0.39800
C 	C 	0.11004 0.77928 0.75711 0.00500
C 	C 	0.10285 0.39944 0.13725 -0.07900
C 	C 	0.10531 0.30790 0.21177 0.08000
N 	N 	0.10575 0.25509 0.21978 -0.15300
C 	C 	0.11600 0.69210 0.28644 -0.08100
C 	C 	0.13314 0.74929 0.29438 0.01200
C 	C 	0.13860 0.84512 0.26293 0.00100
C 	C 	0.11739 0.64593 0.77893 -0.08600
H 	H 	0.12114 0.61823 0.25340 0.09000
O 	O 	0.14010 0.91232 0.17414 -0.39800
H 	H 	0.16005 0.19199 0.82131 0.05200
C 	C 	0.12302 0.69735 0.78581 0.07700
H 	H 	0.15123 0.58181 0.75611 0.05600
C 	C 	0.14728 0.44345 0.17123 0.07500
H 	H 	0.14899 0.53298 0.12683 0.08900
O 	O 	0.17007 0.04866 0.12730 -0.36900
O 	O 	0.18528 0.94837 0.63969 -0.41300
C 	C 	0.14918 0.35177 0.24580 -0.08500
N 	N 	0.14849 0.49740 0.16286 -0.16300
C 	C 	0.17283 0.68954 0.29734 0.07300
N 	N 	0.16791 0.65139 0.27703 -0.16300
C 	C 	0.20555 0.23073 0.80312 -0.04900
C 	C 	0.17180 0.05127 0.08245 0.28600
O 	O 	0.20089 0.01950 0.67231 -0.37600
C 	C 	0.20828 0.22669 0.75977 0.01200
C 	C 	0.18010 0.64943 0.79691 0.02100
C 	C 	0.19144 0.61794 0.78093 -0.07200
C 	C 	0.18228 0.80804 0.78292 -0.04900
C 	C 	0.17024 0.42028 0.22399 0.02300
C 	C 	0.17442 0.51072 0.21002 0.05700
H 	H 	0.16719 0.33378 0.28715 0.05800
O 	O 	0.00405 0.98757 0.26229 -0.42100
C 	C 	0.00602 0.99157 0.34242 -0.14500
O 	O 	0.98901 0.99749 0.12157 -0.59700
O 	O 	0.96587 0.13786 0.15079 -0.39100
C 	C 	0.99230 0.00937 0.28491 0.35900
O 	O 	0.97438 0.05234 0.25676 -0.40900
O 	O 	0.98487 0.87123 0.03544 -0.40200
O 	O 	0.99866 0.96895 0.76904 -0.40700
H 	H 	0.20934 0.30097 0.85004 0.05700
C 	C 	0.68783 0.30695 0.00642 0.10200
N 	N 	0.61716 0.27727 0.99871 -0.13500
C 	C 	0.59697 0.31573 0.99123 0.09000
N 	N 	0.64697 0.38443 0.98894 -0.12700
C 	C 	0.71784 0.41372 0.99962 0.08300
N 	N 	0.73849 0.37484 0.00858 -0.12600
C 	C 	0.75636 0.29443 0.56364 0.09700
N 	N 	0.69715 0.24294 0.58402 -0.13100
C 	C 	0.67965 0.25609 0.61081 0.09800
N 	N 	0.72257 0.32050 0.61843 -0.13000
C 	C 	0.78021 0.37296 0.59661 0.09700
N 	N 	0.79695 0.36010 0.56880 -0.13100
C 	C 	0.25250 0.66463 0.24803 0.09600
N 	N 	0.31863 0.70861 0.23734 -0.13200
C 	C 	0.33513 0.69023 0.21407 0.09700
N 	N 	0.28605 0.62756 0.20230 -0.13000
C 	C 	0.22129 0.58230 0.21481 0.09700
N 	N 	0.20437 0.60075 0.23770 -0.13000
C 	C 	0.30487 0.64303 0.78011 0.09600
N 	N 	0.37665 0.69144 0.78147 -0.13200
C 	C 	0.41471 0.67457 0.78101 0.09800
N 	N 	0.38109 0.60960 0.77901 -0.13100
C 	C 	0.30922 0.56174 0.77538 0.09800
N 	N 	0.27074 0.57808 0.77630 -0.13000
Co	Co	0.88013 0.96246 0.11764 1.17700
Co	Co	0.93974 0.91182 0.08652 1.18300
Co	Co	0.89583 0.03671 0.18713 1.17300
C 	C 	0.96869 0.91401 0.99951 0.30000
O 	O 	0.93623 0.01398 0.15969 -0.75200
O 	O 	0.85407 0.90968 0.07165 -0.46600
C 	C 	0.82250 0.04533 0.07414 0.27300
C 	C 	0.91883 0.77394 0.12585 0.27100
O 	O 	0.81247 0.02203 0.12102 -0.39300
O 	O 	0.84783 0.02550 0.06261 -0.37000
O 	O 	0.98772 0.80108 0.14491 -0.39400
O 	O 	0.89278 0.80552 0.11963 -0.38100
C 	C 	0.78457 0.88649 0.19219 0.26400
O 	O 	0.83152 0.93211 0.22093 -0.38500
O 	O 	0.80581 0.87958 0.16461 -0.38400
O 	O 	0.94752 0.93783 0.01137 -0.38000
Co	Co	0.94202 0.99813 0.62842 1.17100
Co	Co	0.97724 0.92640 0.59461 1.17900
Co	Co	0.98924 0.10242 0.68617 1.16600
O 	O 	0.00767 0.04983 0.66955 -0.75200
O 	O 	0.90032 0.93341 0.58602 -0.47700
C 	C 	0.92870 0.11906 0.57203 0.26800
C 	C 	0.99040 0.99641 0.78936 0.29000
C 	C 	0.22066 0.01029 0.64553 0.29700
C 	C 	0.91978 0.79133 0.58796 0.27500
O 	O 	0.98067 0.15249 0.60836 -0.38100
O 	O 	0.91897 0.06680 0.56760 -0.36500
O 	O 	0.00405 0.05849 0.76663 -0.38300
O 	O 	0.97122 0.82992 0.56354 -0.40300
O 	O 	0.91789 0.81912 0.61242 -0.39200
C 	C 	0.84686 0.96035 0.68487 0.25000
O 	O 	0.87801 0.02751 0.67167 -0.38200
O 	O 	0.86983 0.93592 0.67585 -0.39700
O 	O 	0.98765 0.96230 0.51760 -0.38800
C 	C 	0.97803 0.96323 0.84272 -0.10900
C 	C 	0.91983 0.94836 0.85127 -0.06300
C 	C 	0.91677 0.93351 0.90213 0.16600
C 	C 	0.97230 0.93334 0.94507 -0.11300
H 	H 	0.87803 0.95045 0.81832 0.05600
O 	O 	0.85837 0.91692 0.90974 -0.28600
H 	H 	0.87062 0.96194 0.90618 0.14800
C 	C 	0.95724 0.93750 0.41826 -0.06700
C 	C 	0.94755 0.94130 0.36676 0.17100
H 	H 	0.91183 0.89850 0.43655 0.06400
O 	O 	0.88009 0.89803 0.33943 -0.29300
H 	H 	0.87661 0.85655 0.34596 0.14900
C 	C 	0.27749 0.33646 0.75722 0.08000
C 	C 	0.29596 0.40399 0.73084 -0.08600
C 	C 	0.29652 0.43714 0.75522 0.02200
C 	C 	0.27067 0.40253 0.79944 0.07400
C 	C 	0.24073 0.33147 0.82106 -0.08100
C 	C 	0.25027 0.30078 0.80165 0.01400
N 	N 	0.25262 0.29129 0.73250 -0.15100
N 	N 	0.25453 0.43632 0.80543 -0.16200
C 	C 	0.27319 0.49487 0.76580 0.05500
C 	C 	0.29466 0.49378 0.73175 -0.07100
H 	H 	0.30587 0.42801 0.69204 0.05700
H 	H 	0.32539 0.53865 0.70328 0.05600
H 	H 	0.24864 0.30384 0.69266 0.09400
H 	H 	0.25084 0.43044 0.84105 0.08900
C 	C 	0.58250 0.75750 0.76224 0.07600
C 	C 	0.64985 0.77135 0.77546 -0.08000
C 	C 	0.70555 0.83853 0.75484 0.01400
C 	C 	0.69375 0.88899 0.72159 0.07500
C 	C 	0.62633 0.87484 0.70889 -0.08600
C 	C 	0.57081 0.80758 0.72902 0.01900
N 	N 	0.53504 0.70994 0.79282 -0.16300
C 	C 	0.49086 0.72779 0.77822 0.05500
C 	C 	0.51377 0.79022 0.73994 -0.07200
N 	N 	0.73845 0.93431 0.68898 -0.15300
C 	C 	0.77781 0.91278 0.69990 0.00200
C 	C 	0.75999 0.85415 0.74144 -0.04800
H 	H 	0.65866 0.73179 0.80096 0.05600
H 	H 	0.61708 0.91407 0.68315 0.05100
H 	H 	0.48138 0.80923 0.71386 0.05300
H 	H 	0.77194 0.81854 0.75131 0.05100
H 	H 	0.52398 0.66102 0.81422 0.09100
H 	H 	0.73206 0.96872 0.65436 0.08100
C 	C 	0.24722 0.70853 0.81092 0.07300
C 	C 	0.25367 0.76511 0.80933 -0.08200
C 	C 	0.18998 0.75527 0.80157 0.01100
N 	N 	0.29911 0.71469 0.80448 -0.16300
C 	C 	0.26556 0.66010 0.78596 0.05600
H 	H 	0.30550 0.81507 0.81215 0.05100
H 	H 	0.22567 0.86288 0.77390 0.04200
H 	H 	0.35082 0.76048 0.80145 0.08800
C 	C 	0.18527 0.46125 0.24924 -0.07100
H 	H 	0.21899 0.46715 0.28818 0.05600
C 	C 	0.50723 0.74233 0.23290 0.07400
C 	C 	0.57967 0.76978 0.25869 -0.08100
C 	C 	0.62884 0.80895 0.22780 0.01100
C 	C 	0.60707 0.81846 0.17421 0.07600
C 	C 	0.53448 0.78985 0.14833 -0.08600
C 	C 	0.48498 0.75100 0.17907 0.02300
N 	N 	0.46184 0.73272 0.25062 -0.16300
C 	C 	0.40904 0.73303 0.20881 0.05600
C 	C 	0.42341 0.74687 0.16337 -0.07400
N 	N 	0.65512 0.83317 0.15578 -0.15300
C 	C 	0.70957 0.83585 0.19744 0.00400
C 	C 	0.69261 0.81724 0.24332 -0.04500
H 	H 	0.59721 0.76279 0.30070 0.05500
H 	H 	0.51732 0.79762 0.10625 0.05500
H 	H 	0.38461 0.73706 0.12640 0.05500
H 	H 	0.73069 0.82744 0.28046 0.06000
H 	H 	0.45780 0.71114 0.28954 0.08800
H 	H 	0.65982 0.85763 0.11697 0.08300
C 	C 	0.20422 0.80701 0.30359 0.07800
C 	C 	0.26069 0.80798 0.30754 -0.08700
C 	C 	0.24400 0.74626 0.30860 0.02100
N 	N 	0.20714 0.86479 0.28475 -0.15200
C 	C 	0.23562 0.68354 0.27527 0.05700
C 	C 	0.28439 0.74296 0.29415 -0.07400
H 	H 	0.31448 0.85591 0.30650 0.05300
H 	H 	0.33570 0.78716 0.28381 0.05500
H 	H 	0.25223 0.91472 0.27365 0.08500
C 	C 	0.76398 0.21989 0.49830 0.07500
C 	C 	0.75287 0.15981 0.50197 -0.08100
C 	C 	0.80855 0.16761 0.49635 0.01300
C 	C 	0.87632 0.23091 0.49532 0.07800
C 	C 	0.89000 0.28889 0.49884 -0.08700
C 	C 	0.83137 0.28356 0.49617 0.02100
N 	N 	0.72720 0.21851 0.51897 -0.16300
C 	C 	0.77068 0.28075 0.53036 0.05700
C 	C 	0.83621 0.32254 0.51719 -0.07300
N 	N 	0.92711 0.22032 0.51461 -0.15200
C 	C 	0.89287 0.15070 0.52887 0.00700
C 	C 	0.81893 0.11627 0.51793 -0.04500
H 	H 	0.70478 0.10872 0.51222 0.05700
H 	H 	0.94462 0.33457 0.50674 0.05500
H 	H 	0.88622 0.36395 0.53536 0.05500
H 	H 	0.78288 0.06414 0.53900 0.05100
H 	H 	0.68489 0.17308 0.53673 0.09200
H 	H 	0.98117 0.25595 0.53051 0.09300
C 	C 	0.79775 0.52251 0.57091 0.07400
C 	C 	0.80470 0.58460 0.54014 -0.08000
C 	C 	0.84398 0.63691 0.56548 0.01000
C 	C 	0.87252 0.62765 0.61841 0.07800
C 	C 	0.86445 0.56529 0.64974 -0.08700
C 	C 	0.82580 0.51263 0.62459 0.02200
N 	N 	0.79258 0.48248 0.55269 -0.16300
C 	C 	0.81465 0.44473 0.59446 0.05600
C 	C 	0.83866 0.46468 0.63953 -0.07400
N 	N 	0.88676 0.67389 0.63587 -0.15200
C 	C 	0.87108 0.71606 0.59314 -0.00100
C 	C 	0.83945 0.69087 0.54899 -0.04200
H 	H 	0.78314 0.59271 0.49827 0.05500
H 	H 	0.88815 0.55850 0.69133 0.05300
H 	H 	0.84548 0.43469 0.67918 0.05300
H 	H 	0.83582 0.72107 0.50894 0.04700
H 	H 	0.75987 0.46931 0.51684 0.08900
H 	H 	0.92201 0.68722 0.67129 0.09100
C 	C 	0.37711 0.08892 0.61287 0.08600
C 	C 	0.41957 0.11987 0.57889 -0.08700
C 	C 	0.49380 0.16862 0.59449 0.02500
C 	C 	0.52457 0.18515 0.64218 0.07400
C 	C 	0.48184 0.15406 0.67619 -0.07700
C 	C 	0.40761 0.10443 0.66083 0.00900
N 	N 	0.30812 0.06593 0.59674 -0.15000
C 	C 	0.29273 0.06379 0.63500 -0.00000
C 	C 	0.35460 0.09034 0.67461 -0.03700
N 	N 	0.59333 0.20698 0.65864 -0.16200
C 	C 	0.60757 0.20608 0.62131 0.05800
C 	C 	0.54573 0.17983 0.58181 -0.07200
H 	H 	0.39575 0.10698 0.54170 0.06200
H 	H 	0.50559 0.16672 0.71346 0.05600
H 	H 	0.35534 0.08171 0.71403 0.05200
H 	H 	0.54447 0.18599 0.54296 0.05800
H 	H 	0.27009 0.03902 0.56736 0.09700
H 	H 	0.63192 0.23430 0.68772 0.09000
C 	C 	0.73038 0.12050 0.00835 0.08200
C 	C 	0.68056 0.11694 0.01845 -0.08700
C 	C 	0.70517 0.17315 0.03273 0.02400
C 	C 	0.77495 0.23327 0.03262 0.07300
C 	C 	0.82398 0.23857 0.01999 -0.08100
C 	C 	0.80064 0.18074 0.00840 0.01200
N 	N 	0.72897 0.06456 0.02249 -0.15100
C 	C 	0.79772 0.08766 0.03302 0.00600
C 	C 	0.84354 0.15983 0.02393 -0.04600
N 	N 	0.77796 0.28825 0.02488 -0.16300
C 	C 	0.70999 0.26308 0.01985 0.05700
C 	C 	0.66312 0.19179 0.02441 -0.07200
H 	H 	0.62578 0.07041 0.01815 0.06000
H 	H 	0.87878 0.28514 0.02055 0.05300
H 	H 	0.90012 0.18881 0.04336 0.04900
H 	H 	0.60548 0.16293 0.00838 0.06000
H 	H 	0.68889 0.01436 0.03902 0.09300
H 	H 	0.81771 0.33994 0.01015 0.09100
C 	C 	0.80335 0.53134 0.06963 0.07100
C 	C 	0.84824 0.56368 0.11131 -0.07700
C 	C 	0.86836 0.63010 0.10182 0.00500
C 	C 	0.84380 0.66191 0.05366 0.08200
C 	C 	0.79966 0.62977 0.01186 -0.08300
C 	C 	0.77939 0.56330 0.02155 0.03400
N 	N 	0.80022 0.48266 0.06489 -0.16500
C 	C 	0.77069 0.48068 0.01379 0.07300
C 	C 	0.76156 0.53381 0.98528 -0.09200
N 	N 	0.84344 0.70790 0.05905 -0.15200
C 	C 	0.87103 0.70848 0.11034 -0.00200
C 	C 	0.88331 0.65755 0.13838 -0.04000
H 	H 	0.86669 0.53847 0.14921 0.05300
H 	H 	0.78066 0.65462 0.97403 0.05400
H 	H 	0.72648 0.53586 0.94684 0.06000
H 	H 	0.91775 0.65548 0.17715 0.04500
H 	H 	0.79921 0.44153 0.09574 0.09000
H 	H 	0.84192 0.74806 0.02854 0.09600
C 	C 	0.45431 0.26517 0.02869 0.07900
C 	C 	0.42126 0.23549 0.06912 -0.07800
C 	C 	0.34935 0.17758 0.06404 0.00900
C 	C 	0.31006 0.15370 0.01935 0.09200
C 	C 	0.34122 0.18431 0.97776 -0.09600
C 	C 	0.41459 0.24034 0.98341 0.02500
N 	N 	0.52342 0.29142 0.03789 -0.16500
C 	C 	0.52795 0.28112 0.00066 0.07300
C 	C 	0.46233 0.25165 0.96514 -0.08300
N 	N 	0.23943 0.11682 0.01486 -0.15000
C 	C 	0.23285 0.11377 0.05850 0.00100
C 	C 	0.30105 0.15456 0.08867 -0.04000
H 	H 	0.45173 0.25407 0.10440 0.05600
H 	H 	0.31034 0.16436 0.94310 0.06500
H 	H 	0.44737 0.22459 0.93917 0.05900
H 	H 	0.31298 0.15051 0.12965 0.05600
H 	H 	0.56072 0.30010 0.07373 0.09100
H 	H 	0.19863 0.08295 0.99026 0.09700
