data_crystal

_cell_length_a 26.22006
_cell_length_b 26.35397
_cell_length_c 26.55711
_cell_angle_alpha 95.53686
_cell_angle_beta  95.53705
_cell_angle_gamma 125.87481

_symmetry_space_group_name_	'P 1'
_symmetry_space_group_name_H-M	'P 1'

loop_
_symmetry_equiv_pos_as_xyz
  x,y,z

loop_
_atom_site_label
_atom_site_type_symbol
_atom_site_fract_x
_atom_site_fract_y
_atom_site_fract_z
_atom_site_charge
C 	C 	0.96840 0.02384 0.98323 0.02000
C 	C 	0.03230 0.05854 0.97654 0.01300
C 	C 	0.06099 0.02775 0.96988 0.01300
C 	C 	0.02694 0.96314 0.97325 0.05300
C 	C 	0.96299 0.92831 0.97961 0.04900
C 	C 	0.93413 0.95892 0.98543 0.04600
H 	H 	0.05940 0.10910 0.97610 0.11900
H 	H 	0.04993 0.93991 0.97047 0.12200
H 	H 	0.88506 0.93227 0.99146 0.12200
C 	C 	0.93833 0.00624 0.43380 0.01300
C 	C 	0.90274 0.94092 0.43507 0.05500
C 	C 	0.93378 0.91235 0.44075 0.04400
C 	C 	0.00068 0.94949 0.44608 0.05400
C 	C 	0.03642 0.01482 0.44501 0.01400
C 	C 	0.00527 0.04332 0.43980 0.02000
H 	H 	0.85115 0.91250 0.43186 0.12000
H 	H 	0.02490 0.92779 0.45166 0.12300
H 	H 	0.03307 0.09420 0.44059 0.12200
Cu	Cu	0.63992 0.23804 0.01308 0.94600
Cu	Cu	0.70075 0.24938 0.90843 0.90600
Cu	Cu	0.66852 0.33515 0.94493 0.91600
Cu	Cu	0.63468 0.35268 0.04595 0.92600
C 	C 	0.65283 0.28448 0.11929 0.29700
O 	O 	0.54560 0.19909 0.00790 -0.30100
C 	C 	0.66530 0.30175 0.83518 0.29600
O 	O 	0.68821 0.33669 0.01713 -0.62600
O 	O 	0.63414 0.24388 0.93936 -0.63400
O 	O 	0.68046 0.19348 0.01325 -0.24800
O 	O 	0.75430 0.26147 0.96857 -0.37800
O 	O 	0.62034 0.30549 0.10366 -0.33900
O 	O 	0.70800 0.42555 0.95265 -0.30300
C 	C 	0.71321 0.46216 0.99361 0.29300
C 	C 	0.52024 0.22353 0.98457 0.26500
O 	O 	0.55625 0.28462 0.98283 -0.31100
O 	O 	0.67473 0.43792 0.02716 -0.29900
O 	O 	0.65897 0.24824 0.08659 -0.32200
C 	C 	0.73336 0.21580 0.99525 0.25400
O 	O 	0.65344 0.33085 0.87029 -0.30500
O 	O 	0.66595 0.25361 0.84360 -0.35700
H 	H 	0.73434 0.36630 0.03293 0.22400
H 	H 	0.59094 0.21346 0.91763 0.23800
Cu	Cu	0.74041 0.34810 0.44515 0.94500
Cu	Cu	0.74388 0.29664 0.55186 0.90100
Cu	Cu	0.64224 0.30887 0.51454 0.91300
Cu	Cu	0.61217 0.33125 0.41187 0.92000
C 	C 	0.68733 0.32384 0.33849 0.30200
O 	O 	0.76699 0.43790 0.44560 -0.29100
C 	C 	0.68321 0.32089 0.62465 0.29200
O 	O 	0.64071 0.28843 0.44266 -0.63500
O 	O 	0.73621 0.35512 0.51891 -0.63500
O 	O 	0.79447 0.31799 0.44750 -0.30800
O 	O 	0.73224 0.24145 0.49277 -0.35000
O 	O 	0.65825 0.34858 0.35273 -0.34400
O 	O 	0.55009 0.25826 0.50796 -0.34000
C 	C 	0.51129 0.26180 0.47547 0.31800
C 	C 	0.73584 0.45714 0.46607 0.29200
O 	O 	0.67687 0.41464 0.47234 -0.33600
O 	O 	0.52598 0.28128 0.43141 -0.30700
O 	O 	0.72927 0.32586 0.37206 -0.31100
C 	C 	0.77306 0.26324 0.46124 0.30500
O 	O 	0.64764 0.32532 0.58916 -0.32500
O 	O 	0.73612 0.32909 0.61612 -0.35900
H 	H 	0.61581 0.24229 0.42845 0.21900
H 	H 	0.76214 0.39891 0.53938 0.24700
C 	C 	0.61305 0.26396 0.74318 -0.02200
C 	C 	0.66321 0.31335 0.78215 -0.05700
C 	C 	0.71534 0.36953 0.76892 0.14000
C 	C 	0.71897 0.37268 0.71677 -0.02500
C 	C 	0.67158 0.32090 0.67784 -0.05900
C 	C 	0.61680 0.26688 0.69101 0.14000
N 	N 	0.56859 0.21703 0.65403 -0.19500
H 	H 	0.57225 0.22176 0.75348 0.10600
H 	H 	0.75989 0.41480 0.70651 0.10100
N 	N 	0.76260 0.41998 0.80596 -0.19800
H 	H 	0.52872 0.17722 0.66429 0.15300
H 	H 	0.56986 0.21720 0.61490 0.12900
H 	H 	0.76064 0.41996 0.84501 0.15100
H 	H 	0.80161 0.46067 0.79579 0.15800
C 	C 	0.72344 0.34463 0.20427 -0.03200
C 	C 	0.66796 0.28804 0.17488 -0.06400
C 	C 	0.62310 0.23967 0.19988 0.15200
C 	C 	0.63261 0.25089 0.25394 -0.02800
C 	C 	0.68562 0.30945 0.28319 -0.06000
C 	C 	0.73261 0.35618 0.25829 0.14900
N 	N 	0.78576 0.41263 0.28581 -0.19700
H 	H 	0.75826 0.38110 0.18497 0.08500
H 	H 	0.59742 0.21471 0.27321 0.09200
N 	N 	0.57043 0.18293 0.17232 -0.19600
H 	H 	0.81973 0.44703 0.26698 0.15400
H 	H 	0.79425 0.42287 0.32599 0.15000
H 	H 	0.56265 0.17239 0.13219 0.15400
H 	H 	0.53693 0.14806 0.19113 0.15700
C 	C 	0.84776 0.73360 0.41051 0.06000
C 	C 	0.83702 0.71797 0.45932 0.08300
C 	C 	0.85521 0.76590 0.50182 -0.06800
C 	C 	0.88677 0.82926 0.49473 0.03400
C 	C 	0.89686 0.84464 0.44580 0.09400
C 	C 	0.87471 0.79600 0.40276 -0.08800
C 	C 	0.80917 0.65166 0.46580 0.10400
C 	C 	0.84535 0.75072 0.55541 0.78300
H 	H 	0.90455 0.86704 0.52744 0.12600
C 	C 	0.88163 0.81088 0.34893 0.78800
H 	H 	0.83510 0.69691 0.37861 0.12800
C 	C 	0.74275 0.60192 0.44932 -0.09500
C 	C 	0.71980 0.53862 0.45014 0.08200
C 	C 	0.76082 0.52475 0.47062 0.01100
C 	C 	0.82584 0.57539 0.49210 -0.05400
C 	C 	0.85017 0.63777 0.48604 0.03700
C 	C 	0.69703 0.61531 0.42700 0.79000
H 	H 	0.67024 0.49977 0.43348 0.10200
C 	C 	0.86952 0.56352 0.52123 0.78000
H 	H 	0.90112 0.67583 0.49738 0.13700
F 	F 	0.84896 0.75590 0.31167 -0.35500
F 	F 	0.94565 0.84756 0.34532 -0.35000
F 	F 	0.85712 0.84386 0.33845 -0.35100
F 	F 	0.89020 0.74276 0.57592 -0.37800
F 	F 	0.78450 0.69563 0.55364 -0.36000
F 	F 	0.85222 0.79941 0.58810 -0.35500
F 	F 	0.89037 0.53994 0.48670 -0.40700
F 	F 	0.83751 0.52046 0.55304 -0.42800
F 	F 	0.92269 0.61928 0.55200 -0.37000
F 	F 	0.63384 0.56446 0.42552 -0.36400
F 	F 	0.70480 0.62560 0.37734 -0.38900
F 	F 	0.70849 0.66839 0.45655 -0.36200
C 	C 	0.87648 0.09488 0.38480 0.05700
C 	C 	0.85870 0.10907 0.42908 0.08500
C 	C 	0.85895 0.08213 0.47269 -0.07500
C 	C 	0.88463 0.04791 0.47318 0.03300
C 	C 	0.90583 0.03678 0.42989 0.09000
C 	C 	0.89805 0.05699 0.38409 -0.08700
C 	C 	0.83911 0.15165 0.42914 0.10200
C 	C 	0.83001 0.08804 0.51779 0.78300
H 	H 	0.88892 0.03041 0.50742 0.11200
C 	C 	0.91596 0.04140 0.33534 0.75800
H 	H 	0.87448 0.11437 0.35118 0.13500
C 	C 	0.88422 0.21828 0.44731 -0.09500
C 	C 	0.86193 0.25512 0.45560 0.08200
C 	C 	0.79640 0.22715 0.44270 0.00800
C 	C 	0.75314 0.16298 0.41642 -0.05500
C 	C 	0.77456 0.12507 0.41178 0.04000
C 	C 	0.95573 0.24999 0.45735 0.79000
H 	H 	0.89510 0.30503 0.47370 0.10600
C 	C 	0.68376 0.13403 0.39507 0.77800
H 	H 	0.74079 0.07448 0.39590 0.13100
F 	F 	0.98178 0.08167 0.33960 -0.36000
F 	F 	0.88835 0.04908 0.29248 -0.36000
F 	F 	0.89496 0.97881 0.32726 -0.31800
F 	F 	0.76599 0.06066 0.50089 -0.40300
F 	F 	0.86185 0.15151 0.53942 -0.38500
F 	F 	0.83392 0.05753 0.55594 -0.38300
F 	F 	0.65674 0.08086 0.35687 -0.39200
F 	F 	0.67937 0.17751 0.37368 -0.43600
F 	F 	0.64894 0.11587 0.43422 -0.40600
F 	F 	0.99160 0.31558 0.47180 -0.37800
F 	F 	0.97302 0.23700 0.41308 -0.39100
F 	F 	0.97099 0.22727 0.49634 -0.37600
C 	C 	0.20615 0.09381 0.42202 0.05600
C 	C 	0.24161 0.12594 0.47199 0.08200
C 	C 	0.20996 0.12446 0.51281 -0.07000
C 	C 	0.14274 0.08866 0.50272 0.03100
C 	C 	0.10712 0.05449 0.45313 0.09200
C 	C 	0.13903 0.05843 0.41190 -0.08800
C 	C 	0.31225 0.16208 0.48074 0.10800
C 	C 	0.24780 0.16362 0.56631 0.78300
H 	H 	0.11777 0.08706 0.53346 0.11600
C 	C 	0.10157 0.02167 0.35785 0.75800
H 	H 	0.23110 0.09587 0.39115 0.12800
C 	C 	0.34100 0.13047 0.48482 -0.10400
C 	C 	0.40691 0.16461 0.48447 0.08400
C 	C 	0.44465 0.22982 0.48274 0.00300
C 	C 	0.41707 0.26261 0.48405 -0.05000
C 	C 	0.35040 0.22762 0.48019 0.03500
C 	C 	0.30081 0.05929 0.48472 0.79100
H 	H 	0.42854 0.13998 0.48358 0.09500
C 	C 	0.45794 0.33432 0.48721 0.77700
H 	H 	0.32783 0.25108 0.47592 0.14100
F 	F 	0.07172 0.95744 0.35643 -0.32300
F 	F 	0.14119 0.04113 0.32186 -0.37000
F 	F 	0.05585 0.03093 0.34362 -0.35900
F 	F 	0.28004 0.22770 0.56506 -0.38300
F 	F 	0.29170 0.15279 0.58295 -0.37400
F 	F 	0.20820 0.14833 0.60208 -0.37400
F 	F 	0.47170 0.34825 0.43924 -0.39600
F 	F 	0.51465 0.36431 0.52227 -0.40000
F 	F 	0.42644 0.35882 0.50311 -0.36000
F 	F 	0.33879 0.04133 0.50130 -0.39200
F 	F 	0.26790 0.02589 0.43529 -0.40100
F 	F 	0.25736 0.04241 0.51725 -0.38300
C 	C 	0.85111 0.63274 0.99033 0.02700
C 	C 	0.82151 0.66282 0.99464 0.11500
C 	C 	0.75625 0.62706 0.99952 -0.12000
C 	C 	0.72154 0.56115 0.99816 0.09100
C 	C 	0.75169 0.53147 0.99531 0.00800
C 	C 	0.81793 0.56812 0.99374 -0.05200
C 	C 	0.85848 0.73116 0.99130 0.05800
C 	C 	0.72223 0.65790 0.00239 0.82200
H 	H 	0.67064 0.53250 0.99855 0.11000
C 	C 	0.85299 0.53831 0.99413 0.75200
H 	H 	0.90030 0.66004 0.98466 0.13400
C 	C 	0.90182 0.77956 0.03465 -0.04800
C 	C 	0.93643 0.84379 0.02949 0.05500
C 	C 	0.92715 0.86022 0.98265 0.07600
C 	C 	0.88442 0.81185 0.93915 -0.08500
C 	C 	0.85093 0.74761 0.94397 0.06400
C 	C 	0.91385 0.76290 0.08555 0.78000
H 	H 	0.97071 0.88136 0.06196 0.13000
C 	C 	0.87202 0.82856 0.88844 0.78800
H 	H 	0.81815 0.71002 0.91107 0.13000
F 	F 	0.91880 0.58447 0.00578 -0.35800
F 	F 	0.83729 0.50203 0.94612 -0.43500
F 	F 	0.83646 0.50000 0.03082 -0.41500
F 	F 	0.71101 0.66943 0.95439 -0.39700
F 	F 	0.75896 0.71484 0.03754 -0.36200
F 	F 	0.66397 0.61889 0.01775 -0.36200
F 	F 	0.83546 0.77538 0.84927 -0.35800
F 	F 	0.92927 0.87208 0.87352 -0.34200
F 	F 	0.83950 0.85459 0.89414 -0.35800
F 	F 	0.94913 0.81598 0.12484 -0.35000
F 	F 	0.94759 0.73811 0.08051 -0.37500
F 	F 	0.85651 0.71845 0.09997 -0.35700
C 	C 	0.89110 0.10554 0.95542 0.02500
C 	C 	0.87694 0.11430 0.00363 0.11200
C 	C 	0.89227 0.09276 0.04524 -0.08300
C 	C 	0.92416 0.06522 0.03797 0.06400
C 	C 	0.93763 0.05580 0.98955 0.06100
C 	C 	0.91846 0.07359 0.94717 -0.07400
C 	C 	0.84069 0.14080 0.00854 0.11400
C 	C 	0.86975 0.09383 0.09574 0.78800
H 	H 	0.93717 0.04943 0.06961 0.11300
C 	C 	0.92795 0.05963 0.89336 0.75400
H 	H 	0.87912 0.12229 0.92396 0.13100
C 	C 	0.87244 0.20750 0.01868 -0.09300
C 	C 	0.83576 0.23055 0.01740 0.06800
C 	C 	0.76863 0.18861 0.00358 0.04900
C 	C 	0.73702 0.12176 0.99228 -0.08400
C 	C 	0.77359 0.09877 0.99737 0.02100
C 	C 	0.94505 0.25411 0.02575 0.80300
H 	H 	0.85946 0.28147 0.02512 0.11400
C 	C 	0.66468 0.07476 0.97452 0.77100
H 	H 	0.75006 0.04788 0.99048 0.13400
F 	F 	0.99203 0.10110 0.89058 -0.37400
F 	F 	0.89303 0.06701 0.85630 -0.37200
F 	F 	0.90793 0.99752 0.88161 -0.31600
F 	F 	0.80392 0.04909 0.08806 -0.38800
F 	F 	0.88584 0.15339 0.11384 -0.36800
F 	F 	0.89728 0.07965 0.13354 -0.36500
F 	F 	0.64552 0.01387 0.95643 -0.38800
F 	F 	0.64440 0.09301 0.93483 -0.44100
F 	F 	0.63476 0.07213 0.01536 -0.37800
F 	F 	0.96715 0.31604 0.04386 -0.37500
F 	F 	0.96338 0.25207 0.97895 -0.41000
F 	F 	0.97422 0.23878 0.06078 -0.36700
C 	C 	0.20478 0.06947 0.91285 0.05800
C 	C 	0.25464 0.11458 0.95384 0.08100
C 	C 	0.24188 0.14134 0.99499 -0.08400
C 	C 	0.17785 0.11252 0.99974 0.01600
C 	C 	0.12743 0.06363 0.96058 0.10200
C 	C 	0.14140 0.04667 0.91439 -0.09600
C 	C 	0.31970 0.13255 0.95376 0.09600
C 	C 	0.29607 0.20103 0.03295 0.79800
H 	H 	0.16707 0.12722 0.03414 0.13400
C 	C 	0.08916 0.00246 0.86754 0.75900
H 	H 	0.21524 0.05137 0.88016 0.12200
C 	C 	0.34310 0.10579 0.98310 -0.10600
C 	C 	0.40919 0.13481 0.99186 0.05700
C 	C 	0.44997 0.18413 0.96627 0.02300
C 	C 	0.42277 0.19952 0.92740 -0.06600
C 	C 	0.35884 0.17718 0.92440 0.04400
C 	C 	0.29784 0.04610 0.00420 0.78700
H 	H 	0.42917 0.12046 0.01965 0.12200
C 	C 	0.46066 0.23862 0.88875 0.78200
H 	H 	0.33955 0.19465 0.89938 0.13100
F 	F 	0.06230 0.93989 0.87133 -0.33800
F 	F 	0.11422 0.01418 0.82288 -0.36900
F 	F 	0.04187 0.01118 0.86325 -0.35700
F 	F 	0.33724 0.24741 0.00661 -0.38900
F 	F 	0.32993 0.18721 0.06431 -0.38000
F 	F 	0.27318 0.22590 0.06390 -0.37500
F 	F 	0.42009 0.22270 0.84292 -0.38900
F 	F 	0.50409 0.22740 0.87766 -0.44900
F 	F 	0.49296 0.30277 0.90826 -0.40400
F 	F 	0.32830 0.02130 0.02320 -0.38800
F 	F 	0.24690 0.99967 0.96553 -0.37200
F 	F 	0.27459 0.05989 0.04363 -0.38100
