data_crystal

_cell_length_a 27.16304
_cell_length_b 29.07116
_cell_length_c 38.34492
_cell_angle_alpha 61.06261
_cell_angle_beta  118.62359
_cell_angle_gamma 133.19052

_symmetry_space_group_name_	'P 1'
_symmetry_space_group_name_H-M	'P 1'

loop_
_symmetry_equiv_pos_as_xyz
  x,y,z

loop_
_atom_site_label
_atom_site_type_symbol
_atom_site_fract_x
_atom_site_fract_y
_atom_site_fract_z
_atom_site_charge
C 	C 	0.79725 0.33955 0.06770 0.20200
N 	N 	0.74024 0.28801 0.08333 -0.13600
C 	C 	0.70775 0.29780 0.09415 0.20800
N 	N 	0.73241 0.35923 0.08932 -0.10900
C 	C 	0.78773 0.41101 0.07243 0.20400
N 	N 	0.82080 0.40132 0.06185 -0.11900
C 	C 	0.69736 0.26707 0.56239 0.20400
N 	N 	0.73347 0.31794 0.57855 -0.13600
C 	C 	0.70117 0.32081 0.59496 0.20100
N 	N 	0.63323 0.27243 0.59553 -0.11500
C 	C 	0.59727 0.22170 0.57953 0.20400
N 	N 	0.62929 0.21909 0.56292 -0.10500
C 	C 	0.29942 0.68269 0.16345 0.20500
N 	N 	0.36940 0.72767 0.16871 -0.12000
C 	C 	0.40677 0.71986 0.16094 0.20600
N 	N 	0.37432 0.66739 0.14783 -0.12700
C 	C 	0.30457 0.62247 0.14237 0.20300
N 	N 	0.26691 0.63024 0.14999 -0.11400
C 	C 	0.23647 0.61254 0.69841 0.20000
N 	N 	0.20034 0.56255 0.68124 -0.13200
C 	C 	0.23344 0.54186 0.68224 0.20100
N 	N 	0.30200 0.57119 0.70010 -0.11300
C 	C 	0.33845 0.62198 0.71613 0.20800
N 	N 	0.30556 0.64238 0.71548 -0.12200
Co	Co	0.08649 0.03892 0.06068 1.19400
Co	Co	0.07991 0.10478 0.10658 1.19200
C 	C 	0.21051 0.04187 0.07669 0.33800
Co	Co	0.06854 0.92449 0.05085 1.17900
O 	O 	0.03914 0.16601 0.12896 -0.39100
C 	C 	0.99763 0.14780 0.09447 0.35600
O 	O 	0.09908 0.11859 0.05603 -0.42400
C 	C 	0.90651 0.99469 0.16155 0.36300
C 	C 	0.18459 0.21467 0.14943 0.34400
C 	C 	0.06974 0.84326 0.13771 0.36700
O 	O 	0.08548 0.00029 0.99846 -0.36900
O 	O 	0.95593 0.03581 0.18541 -0.40400
O 	O 	0.92142 0.98282 0.14005 -0.36500
O 	O 	0.16444 0.17708 0.18391 -0.37300
O 	O 	0.17320 0.18988 0.12300 -0.33600
O 	O 	0.04690 0.84232 0.09899 -0.37700
O 	O 	0.05561 0.86601 0.15155 -0.34300
O 	O 	0.05913 0.96209 0.08032 -0.76200
O 	O 	0.17308 0.97929 0.07835 -0.35700
O 	O 	0.18234 0.07404 0.05808 -0.34100
Co	Co	0.98181 0.97057 0.55254 1.18800
Co	Co	0.96250 0.03777 0.58976 1.19200
C 	C 	0.09372 0.96924 0.55652 0.35400
Co	Co	0.94823 0.84502 0.54367 1.18000
O 	O 	0.83410 0.01706 0.60201 -0.36600
C 	C 	0.84791 0.05336 0.56548 0.34400
O 	O 	0.00479 0.05504 0.54939 -0.43200
C 	C 	0.81009 0.88860 0.68275 0.36300
C 	C 	0.03939 0.15027 0.62196 0.37000
C 	C 	0.03320 0.82943 0.63041 0.36600
O 	O 	0.90318 0.87887 0.48667 -0.36100
O 	O 	0.85197 0.94531 0.69146 -0.39700
O 	O 	0.83131 0.87089 0.67019 -0.35800
O 	O 	0.97736 0.12717 0.62126 -0.37800
O 	O 	0.04803 0.11513 0.61627 -0.36800
O 	O 	0.98934 0.80288 0.59899 -0.37800
O 	O 	0.03040 0.86684 0.63851 -0.37400
O 	O 	0.94301 0.89024 0.56989 -0.75400
O 	O 	0.04573 0.92812 0.53269 -0.37000
O 	O 	0.07795 0.99024 0.57070 -0.39600
C 	C 	0.06535 0.03171 0.83218 -0.00200
C 	C 	0.08563 0.07289 0.85292 -0.03400
C 	C 	0.04066 0.05022 0.87483 0.03700
S 	S 	0.09317 0.05649 0.79201 0.12400
C 	C 	0.06411 0.07166 0.90969 -0.00800
H 	H 	0.13588 0.11972 0.85346 0.07900
H 	H 	0.90412 0.90269 0.85095 0.07800
H 	H 	0.92435 0.91049 0.78570 0.05700
H 	H 	0.11764 0.11075 0.91947 0.07900
C 	C 	0.03641 0.96415 0.35484 0.00700
C 	C 	0.05704 0.99516 0.38308 -0.04000
C 	C 	0.00639 0.99057 0.38891 0.03500
C 	C 	0.01200 0.99725 0.42531 -0.00900
S 	S 	0.08842 0.98685 0.32986 0.08600
H 	H 	0.11018 0.02046 0.40066 0.07000
H 	H 	0.05830 0.01107 0.44998 0.05900
C 	C 	0.15957 0.29081 0.66732 -0.12900
C 	C 	0.14632 0.33431 0.63418 0.02000
C 	C 	0.11650 0.32391 0.59468 0.30200
C 	C 	0.09334 0.26695 0.58931 -0.04700
C 	C 	0.09612 0.21846 0.62346 -0.13100
C 	C 	0.13488 0.23318 0.66193 0.37600
C 	C 	0.15998 0.38836 0.64128 0.01400
F 	F 	0.10566 0.36666 0.56197 -0.39800
H 	H 	0.06635 0.25738 0.55914 0.13400
F 	F 	0.14186 0.18848 0.69495 -0.42700
H 	H 	0.18567 0.29996 0.69761 0.13600
C 	C 	0.12664 0.37537 0.66722 0.30800
C 	C 	0.14540 0.42665 0.67737 -0.07600
C 	C 	0.19710 0.49115 0.66151 -0.07300
C 	C 	0.22544 0.50418 0.63257 0.35500
C 	C 	0.20774 0.45302 0.62301 -0.11700
F 	F 	0.07752 0.31309 0.68341 -0.40400
H 	H 	0.12260 0.41601 0.69933 0.11900
F 	F 	0.27351 0.56651 0.61568 -0.41200
H 	H 	0.23270 0.46365 0.60235 0.14300
C 	C 	0.51650 0.66530 0.74710 -0.12100
C 	C 	0.55221 0.73060 0.72540 0.01300
C 	C 	0.52149 0.76305 0.70815 0.31400
C 	C 	0.45297 0.72866 0.70917 -0.07600
C 	C 	0.41461 0.66156 0.72711 -0.07000
C 	C 	0.44803 0.63092 0.74827 0.35800
C 	C 	0.61835 0.76293 0.71717 0.02400
F 	F 	0.55679 0.82704 0.68844 -0.40000
H 	H 	0.42820 0.75314 0.69348 0.12000
F 	F 	0.41282 0.56690 0.76794 -0.40700
H 	H 	0.54073 0.64050 0.76152 0.13500
C 	C 	0.68098 0.79458 0.74529 0.29700
C 	C 	0.74403 0.83244 0.73497 -0.04500
C 	C 	0.74490 0.83916 0.69640 -0.14500
C 	C 	0.68224 0.80423 0.66929 0.38500
C 	C 	0.61916 0.76625 0.67969 -0.13900
F 	F 	0.68066 0.79056 0.78197 -0.40300
H 	H 	0.79223 0.85832 0.75639 0.09300
F 	F 	0.68236 0.80987 0.63205 -0.42300
H 	H 	0.57083 0.74116 0.65807 0.13700
C 	C 	0.19048 0.68419 0.72738 -0.11900
C 	C 	0.15883 0.70680 0.68895 0.01200
C 	C 	0.14713 0.69315 0.65412 0.31300
C 	C 	0.16873 0.65870 0.65762 -0.07800
C 	C 	0.20246 0.63787 0.69588 -0.07400
C 	C 	0.21220 0.64986 0.73091 0.35400
C 	C 	0.13471 0.74192 0.68541 0.02200
F 	F 	0.11528 0.71366 0.61686 -0.39700
H 	H 	0.16128 0.65009 0.63040 0.12000
F 	F 	0.24341 0.62885 0.76828 -0.40500
H 	H 	0.19851 0.69344 0.75450 0.13700
C 	C 	0.06952 0.70704 0.69234 0.30500
C 	C 	0.04033 0.73898 0.68069 -0.04900
C 	C 	0.07507 0.80549 0.66095 -0.12800
C 	C 	0.14448 0.84185 0.66009 0.38800
C 	C 	0.17373 0.80998 0.67132 -0.12900
F 	F 	0.03249 0.64160 0.70778 -0.40000
H 	H 	0.98809 0.71092 0.68349 0.12700
F 	F 	0.18246 0.90755 0.64671 -0.42100
H 	H 	0.22550 0.83779 0.66766 0.13600
C 	C 	0.20391 0.37145 0.09532 -0.13800
C 	C 	0.23874 0.39948 0.12846 0.02600
C 	C 	0.26900 0.37366 0.16593 0.29000
C 	C 	0.25804 0.31633 0.17146 -0.05100
C 	C 	0.21709 0.28450 0.13958 -0.14100
C 	C 	0.19469 0.31504 0.10058 0.37500
C 	C 	0.24142 0.45421 0.12454 0.00700
F 	F 	0.30690 0.40288 0.19741 -0.39900
H 	H 	0.27810 0.29467 0.20122 0.11000
F 	F 	0.16101 0.28832 0.06834 -0.43600
H 	H 	0.18239 0.39230 0.06587 0.14900
C 	C 	0.28033 0.51538 0.09908 0.31600
C 	C 	0.29424 0.56985 0.10159 -0.07700
C 	C 	0.27099 0.56397 0.13030 -0.07000
C 	C 	0.22642 0.50178 0.15286 0.35900
C 	C 	0.21131 0.44709 0.14969 -0.11100
F 	F 	0.30817 0.52271 0.07376 -0.40200
H 	H 	0.32688 0.61734 0.08311 0.11700
F 	F 	0.20191 0.49481 0.18000 -0.39800
H 	H 	0.17934 0.39963 0.16848 0.13100
C 	C 	0.70971 0.89326 0.13093 -0.13500
C 	C 	0.69519 0.88851 0.16354 0.02600
C 	C 	0.74974 0.91876 0.19511 0.29200
C 	C 	0.81830 0.95298 0.19435 -0.05300
C 	C 	0.83331 0.95759 0.16192 -0.12900
C 	C 	0.77840 0.92763 0.13000 0.39600
C 	C 	0.62277 0.84838 0.16592 0.00900
F 	F 	0.73622 0.91453 0.22676 -0.41100
H 	H 	0.85981 0.97561 0.21919 0.09300
F 	F 	0.79146 0.93289 0.09774 -0.40500
H 	H 	0.66768 0.86988 0.10646 0.14000
C 	C 	0.58088 0.86999 0.13964 0.31300
C 	C 	0.51087 0.82967 0.14029 -0.07800
C 	C 	0.48231 0.76750 0.16700 -0.07400
C 	C 	0.52520 0.74744 0.19476 0.35800
C 	C 	0.59509 0.78770 0.19414 -0.11900
F 	F 	0.60765 0.92938 0.11291 -0.40000
H 	H 	0.47813 0.84555 0.11882 0.11600
F 	F 	0.49843 0.68789 0.22132 -0.40000
H 	H 	0.62743 0.77117 0.21495 0.13200
C 	C 	0.24049 0.71668 0.21399 -0.12700
C 	C 	0.18911 0.72236 0.18170 0.01400
C 	C 	0.17150 0.71130 0.14417 0.32000
C 	C 	0.20567 0.69563 0.13894 -0.07700
C 	C 	0.25869 0.69223 0.17070 -0.07000
C 	C 	0.27540 0.70195 0.20849 0.35900
C 	C 	0.15816 0.74555 0.18581 0.02100
F 	F 	0.12322 0.71826 0.11228 -0.38800
H 	H 	0.19257 0.68835 0.10968 0.11900
F 	F 	0.32566 0.69748 0.23978 -0.40000
H 	H 	0.25428 0.72489 0.24304 0.13300
C 	C 	0.08575 0.70879 0.17853 0.31500
C 	C 	0.05542 0.73885 0.16881 -0.03600
C 	C 	0.09734 0.80546 0.16677 -0.13400
C 	C 	0.16938 0.83828 0.18172 0.37900
C 	C 	0.19995 0.80893 0.19036 -0.14500
F 	F 	0.04472 0.64551 0.17773 -0.37400
H 	H 	0.99946 0.71203 0.15922 0.12400
F 	F 	0.21012 0.90056 0.18429 -0.43600
H 	H 	0.25600 0.83684 0.19790 0.13300
C 	C 	0.84917 0.20036 0.51762 -0.13100
C 	C 	0.78571 0.17344 0.52305 0.02000
C 	C 	0.73607 0.10558 0.53159 0.29600
C 	C 	0.75339 0.06517 0.53995 -0.05100
C 	C 	0.82058 0.09220 0.54039 -0.13400
C 	C 	0.86645 0.15985 0.52596 0.38000
C 	C 	0.77621 0.21469 0.52716 0.00800
F 	F 	0.67326 0.07883 0.53527 -0.40100
H 	H 	0.71656 0.01292 0.54944 0.11600
F 	F 	0.93009 0.18670 0.52358 -0.43000
H 	H 	0.88688 0.25269 0.50964 0.14300
C 	C 	0.81252 0.23836 0.56252 0.31000
C 	C 	0.79084 0.26194 0.57208 -0.07800
C 	C 	0.73255 0.26158 0.54662 -0.07200
C 	C 	0.70109 0.24454 0.50910 0.35800
C 	C 	0.72295 0.22121 0.49944 -0.11300
F 	F 	0.86542 0.23393 0.58911 -0.40700
H 	H 	0.81633 0.27621 0.60069 0.11700
F 	F 	0.64700 0.24738 0.48306 -0.39100
H 	H 	0.69587 0.20466 0.47157 0.13900
C 	C 	0.73474 0.42968 0.64199 -0.12400
C 	C 	0.77029 0.49012 0.61508 0.01100
C 	C 	0.79603 0.49654 0.58754 0.32500
C 	C 	0.77886 0.44144 0.58353 -0.07800
C 	C 	0.73673 0.37971 0.60741 -0.07200
C 	C 	0.71884 0.37477 0.63862 0.35600
C 	C 	0.77402 0.54468 0.61258 0.02300
F 	F 	0.83460 0.55569 0.56320 -0.39700
H 	H 	0.79483 0.44630 0.56020 0.12200
F 	F 	0.68334 0.31624 0.66444 -0.41000
H 	H 	0.71686 0.42474 0.66434 0.13100
C 	C 	0.74116 0.56958 0.57639 0.30800
C 	C 	0.75564 0.62855 0.57100 -0.05200
C 	C 	0.80276 0.66287 0.60180 -0.13200
C 	C 	0.81359 0.57442 0.64537 -0.14200
F 	F 	0.69789 0.53820 0.54571 -0.39300
H 	H 	0.73373 0.64961 0.54193 0.11600
C 	C 	0.40382 0.11919 0.53856 -0.12300
C 	C 	0.38059 0.09333 0.57372 0.00600
C 	C 	0.42837 0.10332 0.61166 0.32800
C 	C 	0.49930 0.14256 0.61387 -0.08000
C 	C 	0.52293 0.17169 0.57828 -0.06600
C 	C 	0.47476 0.15825 0.54078 0.35500
C 	C 	0.30742 0.06105 0.57010 0.02700
F 	F 	0.40614 0.07679 0.64608 -0.38800
H 	H 	0.53609 0.15190 0.64304 0.13300
F 	F 	0.49689 0.18594 0.50612 -0.39300
H 	H 	0.36707 0.11106 0.50926 0.12400
C 	C 	0.28834 0.09333 0.57275 0.30700
C 	C 	0.21871 0.06316 0.56860 -0.04500
C 	C 	0.16736 0.00051 0.56155 -0.12900
C 	C 	0.18669 0.96831 0.55878 0.39300
C 	C 	0.25646 0.99858 0.56310 -0.13800
F 	F 	0.33731 0.15433 0.57887 -0.39300
H 	H 	0.20460 0.08889 0.57030 0.10900
F 	F 	0.13828 0.90679 0.55353 -0.42500
H 	H 	0.27101 0.97334 0.56124 0.13200
C 	C 	0.92228 0.31668 0.07420 -0.11900
C 	C 	0.88202 0.27716 0.04669 0.01100
C 	C 	0.81848 0.26693 0.02171 0.30500
C 	C 	0.79327 0.29205 0.02635 -0.07600
C 	C 	0.83143 0.32795 0.05576 -0.07700
C 	C 	0.89725 0.34221 0.07861 0.35200
C 	C 	0.90293 0.24103 0.04742 0.02300
F 	F 	0.78007 0.23075 0.99398 -0.39300
H 	H 	0.74271 0.28133 0.00829 0.11500
F 	F 	0.93504 0.37735 0.10688 -0.41000
H 	H 	0.97162 0.32532 0.09341 0.12900
C 	C 	0.96647 0.27473 0.03869 0.29200
C 	C 	0.99330 0.24148 0.04833 -0.06200
C 	C 	0.95758 0.17469 0.06744 -0.12700
C 	C 	0.89010 0.13986 0.07104 0.37500
C 	C 	0.86322 0.17299 0.06158 -0.13400
F 	F 	0.85273 0.07461 0.08671 -0.42100
H 	H 	0.81320 0.14617 0.06735 0.14400
C 	C 	0.76360 0.54080 0.03718 -0.11600
C 	C 	0.82810 0.58910 0.05606 0.01000
C 	C 	0.88253 0.58226 0.07575 0.31000
C 	C 	0.87103 0.52582 0.07840 -0.07200
C 	C 	0.80550 0.47630 0.06100 -0.07100
C 	C 	0.75270 0.48533 0.03898 0.35500
C 	C 	0.83882 0.64733 0.05449 0.02200
F 	F 	0.94619 0.62991 0.09259 -0.38500
H 	H 	0.91220 0.51955 0.09528 0.13300
F 	F 	0.68981 0.43894 0.02065 -0.41300
H 	H 	0.72159 0.54592 0.02151 0.14200
C 	C 	0.83081 0.68882 0.01661 0.28700
C 	C 	0.84679 0.74660 0.01530 -0.05600
C 	C 	0.87401 0.76508 0.05168 -0.13800
C 	C 	0.87476 0.72030 0.08948 0.37200
C 	C 	0.85757 0.66178 0.09086 -0.13400
F 	F 	0.81122 0.67494 0.98110 -0.40300
H 	H 	0.84386 0.77981 0.98591 0.11000
H 	H 	0.86111 0.62876 0.12020 0.13900
C 	C 	0.55247 0.20370 0.13443 -0.12000
C 	C 	0.50016 0.16560 0.10601 0.01500
C 	C 	0.51819 0.16098 0.07968 0.30900
C 	C 	0.58777 0.19955 0.07886 -0.07500
C 	C 	0.63968 0.24308 0.10423 -0.07400
C 	C 	0.62209 0.24193 0.13382 0.35800
C 	C 	0.42742 0.13735 0.10036 0.01800
F 	F 	0.46801 0.12181 0.05336 -0.40400
H 	H 	0.60082 0.19888 0.05655 0.11700
F 	F 	0.67221 0.28067 0.16040 -0.40700
H 	H 	0.53900 0.20610 0.15563 0.13800
C 	C 	0.39004 0.08396 0.12991 0.30500
C 	C 	0.31994 0.05531 0.12323 -0.06300
C 	C 	0.28651 0.07936 0.08686 -0.12500
C 	C 	0.32481 0.13454 0.05807 0.37600
C 	C 	0.39502 0.16349 0.06495 -0.13100
F 	F 	0.42118 0.05889 0.16459 -0.40000
H 	H 	0.29121 0.01359 0.14587 0.13700
F 	F 	0.29323 0.15814 0.02255 -0.41900
H 	H 	0.42395 0.20539 0.04232 0.13800
Co	Co	0.00570 0.98126 0.16119 1.19100
Co	Co	0.00780 0.91261 0.11389 1.19800
Co	Co	0.06015 0.10681 0.18289 1.17500
C 	C 	0.91972 0.83492 0.05015 0.34300
O 	O 	0.06017 0.06233 0.15294 -0.75300
O 	O 	0.96235 0.89540 0.15247 -0.42400
O 	O 	0.07017 0.01354 0.12185 -0.56000
C 	C 	0.04337 0.01730 0.98035 0.31200
O 	O 	0.99988 0.11488 0.08127 -0.36600
O 	O 	0.02465 0.02423 0.00252 -0.36900
C 	C 	0.04473 0.99059 0.24796 0.29400
O 	O 	0.08646 0.05428 0.23816 -0.36500
O 	O 	0.02858 0.95681 0.22557 -0.35200
O 	O 	0.96310 0.87585 0.02596 -0.38600
O 	O 	0.91906 0.85584 0.07388 -0.34700
Co	Co	0.92937 0.92782 0.66087 1.19200
Co	Co	0.93944 0.85831 0.61953 1.19100
Co	Co	0.91343 0.03379 0.65412 1.17900
C 	C 	0.83958 0.73382 0.59061 0.34200
O 	O 	0.93006 0.99339 0.63181 -0.75500
O 	O 	0.93816 0.85759 0.67236 -0.43000
O 	O 	0.92547 0.93717 0.59756 -0.55800
C 	C 	0.93385 0.94142 0.47109 0.30000
O 	O 	0.89163 0.06089 0.55291 -0.33700
O 	O 	0.94404 0.97691 0.48929 -0.35500
C 	C 	0.00377 0.00021 0.72665 0.30200
O 	O 	0.99749 0.04793 0.70323 -0.35300
O 	O 	0.00524 0.96966 0.71060 -0.35800
O 	O 	0.84993 0.76669 0.55337 -0.36500
O 	O 	0.85582 0.76249 0.61654 -0.33700
C 	C 	0.97492 0.99042 0.87274 0.00600
C 	C 	0.95427 0.94961 0.85145 -0.04300
C 	C 	0.99961 0.97215 0.82986 0.03500
C 	C 	0.02625 0.99239 0.77127 -0.05800
C 	C 	0.97755 0.94968 0.79581 -0.01900
S 	S 	0.94949 0.96441 0.91432 0.07900
C 	C 	0.01739 0.02767 0.93563 -0.05600
C 	C 	0.93832 0.95911 0.36518 -0.00100
C 	C 	0.91771 0.92850 0.33668 -0.04000
C 	C 	0.96868 0.93397 0.33042 0.02900
S 	S 	0.88670 0.93710 0.39025 0.09900
C 	C 	0.94774 0.97003 0.43019 -0.06900
C 	C 	0.02863 0.95740 0.28859 -0.05800
C 	C 	0.96403 0.92974 0.29329 -0.01900
H 	H 	0.86466 0.90355 0.31892 0.08000
H 	H 	0.91836 0.91751 0.26823 0.05500
C 	C 	0.82632 0.63254 0.64033 0.37600
F 	F 	0.86361 0.66052 0.67232 -0.43400
H 	H 	0.83625 0.55373 0.67420 0.13800
F 	F 	0.00387 0.34009 0.02290 -0.40100
H 	H 	0.04419 0.26854 0.04381 0.13200
F 	F 	0.89721 0.73561 0.12498 -0.44100
