data_crystal

_cell_length_a 18.57668
_cell_length_b 18.88348
_cell_length_c 34.85438
_cell_angle_alpha 95.40640
_cell_angle_beta  95.40717
_cell_angle_gamma 126.41134

_symmetry_space_group_name_	'P 1'
_symmetry_space_group_name_H-M	'P 1'

loop_
_symmetry_equiv_pos_as_xyz
  x,y,z

loop_
_atom_site_label
_atom_site_type_symbol
_atom_site_fract_x
_atom_site_fract_y
_atom_site_fract_z
_atom_site_charge
C 	C 	0.83353 0.90641 0.95147 0.06200
C 	C 	0.78586 0.81388 0.95091 -0.08500
C 	C 	0.83271 0.77644 0.95030 0.06100
C 	C 	0.92665 0.83175 0.95111 -0.07900
C 	C 	0.97370 0.92329 0.95142 0.05400
C 	C 	0.92729 0.96051 0.95149 -0.07400
H 	H 	0.71342 0.77171 0.95106 0.05900
H 	H 	0.96317 0.80341 0.95142 0.06000
H 	H 	0.96432 0.03178 0.95218 0.05800
C 	C 	0.02941 0.13858 0.51591 0.07300
C 	C 	0.12454 0.19035 0.52014 -0.09100
C 	C 	0.16658 0.14839 0.52047 0.06800
C 	C 	0.11367 0.05531 0.51647 -0.08500
C 	C 	0.01922 0.00388 0.51277 0.06500
C 	C 	0.97693 0.04533 0.51245 -0.09500
H 	H 	0.16533 0.26244 0.52264 0.05800
H 	H 	0.14611 0.02285 0.51637 0.06500
H 	H 	0.90348 0.00522 0.50928 0.06300
Cu	Cu	0.68873 0.25278 0.94829 0.92600
Cu	Cu	0.68435 0.20248 0.03614 0.87700
Cu	Cu	0.54218 0.20894 0.99620 0.89700
Cu	Cu	0.51445 0.23407 0.91417 0.89600
C 	C 	0.62372 0.20885 0.86468 0.32800
O 	O 	0.73577 0.38010 0.94269 -0.35900
C 	C 	0.60538 0.26203 0.08282 0.32700
O 	O 	0.54644 0.17486 0.94331 -0.64000
O 	O 	0.67654 0.27488 0.00303 -0.63900
O 	O 	0.75270 0.19773 0.95725 -0.36900
O 	O 	0.65685 0.10976 0.99644 -0.43700
O 	O 	0.58092 0.24416 0.87060 -0.39300
O 	O 	0.41095 0.13670 0.98676 -0.38400
C 	C 	0.35910 0.13310 0.95672 0.31700
C 	C 	0.69153 0.41148 0.95280 0.30400
O 	O 	0.60688 0.35590 0.95723 -0.39600
O 	O 	0.39347 0.18080 0.92900 -0.39500
O 	O 	0.67808 0.21339 0.89385 -0.37300
C 	C 	0.71524 0.12610 0.97357 0.30400
O 	O 	0.53756 0.22603 0.05259 -0.38900
O 	O 	0.67881 0.26785 0.07937 -0.42200
H 	H 	0.50969 0.10943 0.93389 0.16500
H 	H 	0.71206 0.33870 0.01552 0.18200
Cu	Cu	0.70147 0.30949 0.52279 0.92700
Cu	Cu	0.74001 0.29501 0.43356 0.87600
Cu	Cu	0.74133 0.44411 0.46896 0.89800
Cu	Cu	0.72966 0.48927 0.55365 0.89900
C 	C 	0.73141 0.37312 0.60491 0.32900
O 	O 	0.57386 0.26098 0.53003 -0.37000
C 	C 	0.68166 0.36884 0.38322 0.32600
O 	O 	0.78041 0.44860 0.52272 -0.63500
O 	O 	0.67267 0.31240 0.46696 -0.64000
O 	O 	0.75390 0.24339 0.51644 -0.37300
O 	O 	0.83686 0.32593 0.47275 -0.43600
O 	O 	0.75676 0.45379 0.60172 -0.39300
O 	O 	0.81592 0.57315 0.47455 -0.37000
C 	C 	0.82007 0.62580 0.50388 0.31100
C 	C 	0.54303 0.30722 0.52533 0.31400
O 	O 	0.59640 0.38811 0.51800 -0.39400
O 	O 	0.76355 0.59263 0.52867 -0.39700
O 	O 	0.74169 0.32700 0.57800 -0.37000
C 	C 	0.82181 0.27248 0.49754 0.31100
O 	O 	0.71959 0.43930 0.41169 -0.38800
O 	O 	0.67085 0.29571 0.38986 -0.42400
H 	H 	0.84719 0.48310 0.53050 0.16700
H 	H 	0.60695 0.27753 0.45598 0.17500
C 	C 	0.64370 0.22963 0.68270 0.01000
C 	C 	0.66888 0.18493 0.70334 -0.03900
C 	C 	0.64195 0.16311 0.73934 -0.03600
C 	C 	0.59053 0.18700 0.75511 0.00700
C 	C 	0.56075 0.22655 0.73317 -0.03600
C 	C 	0.58661 0.24721 0.69708 -0.03900
C 	C 	0.56609 0.17012 0.79427 0.01300
C 	C 	0.62925 0.18651 0.82625 -0.16600
C 	C 	0.67880 0.25995 0.64652 0.01200
C 	C 	0.71444 0.34708 0.64121 -0.16000
H 	H 	0.71052 0.16851 0.69190 0.04300
H 	H 	0.66068 0.12748 0.75471 0.04100
H 	H 	0.51872 0.24269 0.74442 0.04100
H 	H 	0.56328 0.27799 0.68052 0.04900
H 	H 	0.50330 0.15833 0.79953 0.03000
H 	H 	0.68466 0.18416 0.82122 0.08700
H 	H 	0.67739 0.21440 0.62437 0.04300
H 	H 	0.72142 0.39349 0.66504 0.08600
C 	C 	0.62532 0.31759 0.27225 0.00600
C 	C 	0.55486 0.24875 0.24214 -0.04000
C 	C 	0.56445 0.25249 0.20290 -0.03800
C 	C 	0.64457 0.32573 0.19330 0.00600
C 	C 	0.71315 0.39659 0.22329 -0.03900
C 	C 	0.70388 0.39252 0.26255 -0.03800
C 	C 	0.66329 0.32227 0.15305 0.01100
C 	C 	0.59446 0.28581 0.11987 -0.16800
C 	C 	0.62257 0.30385 0.31340 0.01100
C 	C 	0.66016 0.37552 0.34481 -0.17000
H 	H 	0.49416 0.19047 0.24923 0.03900
H 	H 	0.51155 0.19643 0.18020 0.04000
H 	H 	0.77537 0.45322 0.21629 0.04000
H 	H 	0.75967 0.44547 0.28542 0.04200
H 	H 	0.73195 0.34824 0.14945 0.03700
H 	H 	0.53015 0.27269 0.12316 0.08700
H 	H 	0.59195 0.23676 0.31914 0.03600
H 	H 	0.67710 0.43888 0.33903 0.08800
C 	C 	0.96525 0.90681 0.51060 -0.02600
C 	C 	0.91573 0.84875 0.47439 -0.10600
C 	C 	0.87049 0.75665 0.47148 0.19000
C 	C 	0.87622 0.72253 0.50492 -0.12300
C 	C 	0.92666 0.78102 0.54097 -0.03800
C 	C 	0.97003 0.87259 0.54402 0.12200
H 	H 	0.91270 0.87511 0.44847 0.07100
O 	O 	0.82088 0.70022 0.43603 -0.28200
H 	H 	0.93075 0.75506 0.56687 0.04700
O 	O 	0.01922 0.92908 0.57949 -0.27100
H 	H 	0.97554 0.93256 0.59219 0.14500
H 	H 	0.75868 0.68269 0.43530 0.14900
C 	C 	0.87825 0.24161 0.50257 -0.12800
C 	C 	0.90271 0.23120 0.53979 -0.03900
C 	C 	0.95578 0.20136 0.54470 0.12700
C 	C 	0.98395 0.18085 0.51217 -0.03600
C 	C 	0.96074 0.19244 0.47514 -0.10600
C 	C 	0.90813 0.22259 0.47015 0.18600
H 	H 	0.88071 0.24629 0.56493 0.06200
O 	O 	0.97720 0.18915 0.58101 -0.28200
H 	H 	0.98151 0.17578 0.44995 0.06700
O 	O 	0.88145 0.22824 0.43322 -0.31700
H 	H 	0.93160 0.28892 0.42936 0.14300
H 	H 	0.03624 0.24704 0.59346 0.14700
C 	C 	0.44634 0.26531 0.52400 -0.13000
C 	C 	0.39571 0.26438 0.49119 -0.03600
C 	C 	0.30585 0.23260 0.49102 0.12500
C 	C 	0.26578 0.20092 0.52379 -0.03000
C 	C 	0.31748 0.20470 0.55712 -0.10600
C 	C 	0.40714 0.23581 0.55717 0.18800
H 	H 	0.42606 0.28818 0.46574 0.05100
O 	O 	0.25563 0.22784 0.45799 -0.28000
H 	H 	0.28698 0.18055 0.58250 0.07100
O 	O 	0.45758 0.24092 0.59024 -0.30000
H 	H 	0.44673 0.18236 0.58717 0.15300
H 	H 	0.26548 0.28593 0.46150 0.14300
C 	C 	0.73088 0.50608 0.95276 -0.12000
C 	C 	0.75115 0.53959 0.91790 -0.04200
C 	C 	0.77743 0.62561 0.91597 0.12700
C 	C 	0.78449 0.67946 0.94925 -0.02600
C 	C 	0.76249 0.64524 0.98389 -0.11000
C 	C 	0.73518 0.55875 0.98568 0.18300
H 	H 	0.74490 0.49831 0.89202 0.05900
O 	O 	0.79514 0.65661 0.88139 -0.27600
H 	H 	0.76928 0.68670 0.00984 0.07200
O 	O 	0.71612 0.52719 0.02008 -0.29500
H 	H 	0.65036 0.49794 0.01886 0.15300
H 	H 	0.86044 0.68468 0.88186 0.15100
C 	C 	0.78746 0.94861 0.95496 -0.03200
C 	C 	0.77188 0.96761 0.99176 -0.10000
C 	C 	0.74872 0.02562 0.99806 0.17200
C 	C 	0.74035 0.06510 0.96718 -0.11800
C 	C 	0.75281 0.04359 0.92995 -0.05000
C 	C 	0.77561 0.98511 0.92369 0.13600
H 	H 	0.78190 0.94067 0.01606 0.07000
O 	O 	0.74001 0.04803 0.03502 -0.30800
H 	H 	0.74488 0.07210 0.90583 0.06400
O 	O 	0.79052 0.96710 0.88749 -0.27800
H 	H 	0.73063 0.91270 0.87319 0.14700
H 	H 	0.67566 0.00093 0.03669 0.14300
C 	C 	0.26064 0.08001 0.95559 -0.12300
C 	C 	0.20006 0.02442 0.92041 -0.04700
C 	C 	0.10618 0.97502 0.91859 0.13200
C 	C 	0.07224 0.98043 0.95222 -0.01400
C 	C 	0.13265 0.03710 0.98723 -0.12200
C 	C 	0.22663 0.08659 0.98911 0.18900
H 	H 	0.22583 0.01920 0.89450 0.05100
O 	O 	0.04751 0.91948 0.88422 -0.27900
H 	H 	0.10665 0.04198 0.01311 0.07400
O 	O 	0.28513 0.14427 0.02315 -0.28500
H 	H 	0.29348 0.10769 0.03887 0.15500
H 	H 	0.03716 0.95670 0.87002 0.15300
