data_crystal

_cell_length_a 26.30465
_cell_length_b 26.48856
_cell_length_c 33.02277
_cell_angle_alpha 95.49702
_cell_angle_beta  95.49296
_cell_angle_gamma 125.82569

_symmetry_space_group_name_	'P 1'
_symmetry_space_group_name_H-M	'P 1'

loop_
_symmetry_equiv_pos_as_xyz
  x,y,z

loop_
_atom_site_label
_atom_site_type_symbol
_atom_site_fract_x
_atom_site_fract_y
_atom_site_fract_z
_atom_site_charge
C 	C 	0.99744 0.07607 0.99213 0.08500
C 	C 	0.96145 0.01105 0.99289 -0.09300
C 	C 	0.99040 0.98042 0.99180 0.08100
C 	C 	0.05543 0.01484 0.99025 -0.10000
C 	C 	0.09149 0.07971 0.98908 0.07800
C 	C 	0.06248 0.11038 0.99018 -0.10700
H 	H 	0.91108 0.98438 0.99412 0.07100
H 	H 	0.07793 0.99119 0.98994 0.06700
H 	H 	0.09029 0.16060 0.98941 0.06300
C 	C 	0.90870 0.95654 0.45704 0.06600
C 	C 	0.87513 0.89235 0.46013 -0.08700
C 	C 	0.90730 0.86486 0.46297 0.06700
C 	C 	0.97283 0.90156 0.46231 -0.07400
C 	C 	0.00658 0.96582 0.46002 0.04800
C 	C 	0.97446 0.99318 0.45707 -0.07300
H 	H 	0.82443 0.86411 0.46054 0.06700
H 	H 	0.99765 0.88029 0.46400 0.06500
H 	H 	0.00064 0.04297 0.45528 0.05600
Cu	Cu	0.67083 0.28774 0.00763 0.92700
Cu	Cu	0.70278 0.28269 0.91405 0.87200
Cu	Cu	0.70682 0.39034 0.95648 0.90100
Cu	Cu	0.68627 0.41154 0.04339 0.89700
C 	C 	0.68246 0.32122 0.09446 0.26500
O 	O 	0.58056 0.25411 0.01283 -0.37200
C 	C 	0.66765 0.34489 0.86582 0.26100
O 	O 	0.72725 0.38671 0.01272 -0.64100
O 	O 	0.65608 0.29606 0.94966 -0.64000
O 	O 	0.70442 0.23757 0.99956 -0.35800
O 	O 	0.76738 0.29682 0.95545 -0.44100
O 	O 	0.69054 0.37533 0.09319 -0.37000
O 	O 	0.76038 0.48181 0.96702 -0.38000
C 	C 	0.75675 0.51723 0.99581 0.32200
C 	C 	0.55749 0.28507 0.00389 0.29800
O 	O 	0.59615 0.34474 0.00049 -0.37600
O 	O 	0.71913 0.49262 0.02324 -0.39000
O 	O 	0.69663 0.29607 0.06536 -0.35400
C 	C 	0.75317 0.25706 0.98090 0.30800
O 	O 	0.70120 0.39400 0.89690 -0.37400
O 	O 	0.65882 0.29109 0.86878 -0.40800
H 	H 	0.77355 0.41063 0.02339 0.16800
H 	H 	0.61068 0.27375 0.93706 0.17400
Cu	Cu	0.70354 0.28979 0.44449 0.92800
Cu	Cu	0.71265 0.25379 0.53633 0.87300
Cu	Cu	0.60529 0.25591 0.50022 0.90000
Cu	Cu	0.58153 0.28298 0.41682 0.89600
C 	C 	0.64752 0.25888 0.35836 0.25800
O 	O 	0.73825 0.38072 0.44154 -0.36300
C 	C 	0.65686 0.29020 0.59022 0.26100
O 	O 	0.60449 0.23702 0.44268 -0.64000
O 	O 	0.69959 0.30330 0.50375 -0.64000
O 	O 	0.75183 0.25330 0.44871 -0.35900
O 	O 	0.69336 0.18969 0.49270 -0.44100
O 	O 	0.62207 0.28820 0.36770 -0.37400
O 	O 	0.51318 0.20577 0.49259 -0.37000
C 	C 	0.47643 0.20847 0.46402 0.31100
C 	C 	0.71102 0.40550 0.45615 0.30100
O 	O 	0.65208 0.36817 0.46212 -0.37700
O 	O 	0.50060 0.24857 0.43810 -0.39200
O 	O 	0.69077 0.26359 0.38587 -0.34600
C 	C 	0.73139 0.20337 0.46591 0.30700
O 	O 	0.60578 0.25971 0.56037 -0.37500
O 	O 	0.70959 0.29795 0.58409 -0.40600
H 	H 	0.57777 0.19114 0.43079 0.16600
H 	H 	0.72434 0.34828 0.51742 0.17300
C 	C 	0.68544 0.34231 0.69844 0.07500
C 	C 	0.70966 0.39033 0.73309 -0.08300
C 	C 	0.67182 0.37836 0.76338 0.01300
C 	C 	0.61208 0.32031 0.75922 0.07800
C 	C 	0.58680 0.27349 0.72353 -0.08300
C 	C 	0.62539 0.28505 0.69396 0.01200
N 	N 	0.70149 0.35380 0.66112 -0.15100
C 	C 	0.65110 0.30534 0.63266 0.00300
C 	C 	0.60333 0.26107 0.65195 -0.04800
N 	N 	0.59942 0.30613 0.79678 -0.15200
C 	C 	0.65059 0.35429 0.82501 0.00400
C 	C 	0.69629 0.40025 0.80539 -0.04200
H 	H 	0.75651 0.43508 0.73662 0.05500
H 	H 	0.53998 0.22866 0.71987 0.05400
H 	H 	0.55397 0.22503 0.63719 0.05400
H 	H 	0.74689 0.43204 0.81844 0.04900
H 	H 	0.73745 0.39799 0.65497 0.08500
H 	H 	0.56789 0.25999 0.80206 0.08600
C 	C 	0.63801 0.28287 0.19112 0.08100
C 	C 	0.59262 0.24502 0.21469 -0.08300
C 	C 	0.61125 0.22550 0.24731 0.01700
C 	C 	0.67324 0.24356 0.25624 0.08000
C 	C 	0.71789 0.27945 0.23149 -0.08000
C 	C 	0.69948 0.30006 0.19958 0.01500
N 	N 	0.62261 0.28298 0.15111 -0.15300
C 	C 	0.67285 0.29782 0.13350 0.01100
C 	C 	0.72219 0.31018 0.16284 -0.04200
N 	N 	0.69017 0.24866 0.29709 -0.15000
C 	C 	0.63986 0.23470 0.31446 0.00900
C 	C 	0.58983 0.21963 0.28440 -0.04900
H 	H 	0.54466 0.23164 0.20812 0.05700
H 	H 	0.76588 0.29293 0.23795 0.06000
H 	H 	0.76179 0.31044 0.15601 0.05500
H 	H 	0.55323 0.22485 0.29052 0.04700
H 	H 	0.57627 0.26060 0.13487 0.08700
H 	H 	0.73744 0.27736 0.31310 0.10100
C 	C 	0.86517 0.71679 0.50079 -0.09700
C 	C 	0.81979 0.66965 0.46694 -0.01000
C 	C 	0.79841 0.68621 0.43361 0.14300
C 	C 	0.82488 0.74996 0.43340 -0.07900
C 	C 	0.87250 0.79743 0.46637 -0.04600
C 	C 	0.89093 0.78038 0.50086 0.15200
C 	C 	0.79554 0.60314 0.46618 0.01000
O 	O 	0.75072 0.64008 0.40170 -0.27800
H 	H 	0.80961 0.76260 0.40709 0.06400
O 	O 	0.93581 0.82610 0.53399 -0.28600
H 	H 	0.88104 0.70419 0.52683 0.06800
C 	C 	0.81381 0.57463 0.43906 0.11700
C 	C 	0.78761 0.51050 0.43679 -0.03500
C 	C 	0.74447 0.47480 0.46234 -0.12300
C 	C 	0.73005 0.50483 0.49170 0.19000
C 	C 	0.75469 0.56840 0.49296 -0.11500
O 	O 	0.85586 0.60891 0.41391 -0.27700
H 	H 	0.79977 0.48825 0.41450 0.06400
O 	O 	0.69123 0.47193 0.51876 -0.28700
H 	H 	0.74188 0.59065 0.51472 0.07600
H 	H 	0.91125 0.83082 0.55300 0.15200
H 	H 	0.89875 0.62777 0.43019 0.14700
H 	H 	0.72035 0.47799 0.54335 0.14200
H 	H 	0.77287 0.63614 0.38035 0.15900
C 	C 	0.83220 0.03479 0.48867 -0.09700
C 	C 	0.82258 0.05237 0.45160 -0.00900
C 	C 	0.83789 0.03520 0.41568 0.13900
C 	C 	0.86450 0.00237 0.41736 -0.07500
C 	C 	0.87541 0.98597 0.45467 -0.05000
C 	C 	0.85886 0.00203 0.49038 0.15600
C 	C 	0.79809 0.09027 0.45083 0.01000
O 	O 	0.82873 0.05216 0.37925 -0.27500
H 	H 	0.87742 0.99038 0.38981 0.06400
O 	O 	0.86854 0.98559 0.52693 -0.28700
H 	H 	0.81995 0.04742 0.51634 0.06500
C 	C 	0.73278 0.06121 0.44953 0.11400
C 	C 	0.71078 0.09823 0.45228 -0.03300
C 	C 	0.75373 0.16446 0.45695 -0.12800
C 	C 	0.81894 0.19334 0.45715 0.18900
C 	C 	0.84069 0.15612 0.45374 -0.11200
O 	O 	0.69026 0.99656 0.44499 -0.27400
H 	H 	0.66045 0.07552 0.45160 0.05500
O 	O 	0.86158 0.25791 0.46126 -0.28100
H 	H 	0.89101 0.17866 0.45448 0.07900
H 	H 	0.91224 0.02186 0.54124 0.15200
H 	H 	0.68777 0.98795 0.47359 0.14300
H 	H 	0.87733 0.27425 0.49149 0.13600
H 	H 	0.78479 0.01640 0.36497 0.15500
C 	C 	0.18370 0.06090 0.50076 -0.09500
C 	C 	0.20776 0.07256 0.46394 -0.01200
C 	C 	0.16583 0.05096 0.42591 0.14200
C 	C 	0.10014 0.01703 0.42488 -0.08000
C 	C 	0.07600 0.00476 0.46165 -0.04000
C 	C 	0.11800 0.02680 0.49972 0.14900
C 	C 	0.27695 0.10786 0.46532 0.01100
O 	O 	0.18878 0.06117 0.38963 -0.28000
H 	H 	0.06790 0.99965 0.39545 0.06100
O 	O 	0.09500 0.01619 0.53597 -0.28100
H 	H 	0.21592 0.07807 0.53016 0.06800
C 	C 	0.31491 0.17288 0.46395 0.11600
C 	C 	0.38013 0.20556 0.46378 -0.03200
C 	C 	0.40816 0.17396 0.46559 -0.12200
C 	C 	0.37028 0.10904 0.46760 0.19200
C 	C 	0.30496 0.07636 0.46771 -0.11500
O 	O 	0.28798 0.20415 0.46170 -0.27600
H 	H 	0.40900 0.25559 0.46241 0.06000
O 	O 	0.39696 0.07750 0.46950 -0.29000
H 	H 	0.27592 0.02634 0.46910 0.07500
H 	H 	0.08629 0.97547 0.54039 0.14900
H 	H 	0.29110 0.22041 0.49086 0.14700
H 	H 	0.39295 0.06071 0.44027 0.14400
H 	H 	0.19768 0.10190 0.38507 0.15600
C 	C 	0.90877 0.82497 0.02951 -0.10000
C 	C 	0.88760 0.78224 0.99229 -0.00700
C 	C 	0.89843 0.80447 0.95473 0.14200
C 	C 	0.93057 0.86918 0.95463 -0.07600
C 	C 	0.95258 0.91203 0.99191 -0.04500
C 	C 	0.94159 0.88978 0.02947 0.14900
C 	C 	0.85410 0.71427 0.99276 0.01200
O 	O 	0.87634 0.76282 0.91803 -0.27500
H 	H 	0.93900 0.88617 0.92564 0.07000
O 	O 	0.96213 0.93121 0.06604 -0.27700
H 	H 	0.90025 0.80796 0.05849 0.06800
C 	C 	0.88746 0.68786 0.99250 0.11400
C 	C 	0.85516 0.62318 0.99289 -0.03000
C 	C 	0.78990 0.58484 0.99447 -0.12400
C 	C 	0.75659 0.61142 0.99484 0.19700
C 	C 	0.78874 0.67587 0.99379 -0.11400
O 	O 	0.95129 0.72493 0.99096 -0.27200
H 	H 	0.88103 0.60301 0.99249 0.05400
O 	O 	0.69209 0.57391 0.99428 -0.28000
H 	H 	0.76281 0.69600 0.99371 0.08000
H 	H 	0.00581 0.94492 0.07661 0.13800
H 	H 	0.97366 0.74165 0.02029 0.14000
H 	H 	0.68779 0.57722 0.02375 0.15000
H 	H 	0.91180 0.76054 0.91367 0.15700
C 	C 	0.91814 0.15010 0.95727 -0.09500
C 	C 	0.90128 0.16196 0.99408 -0.00600
C 	C 	0.91841 0.14802 0.03070 0.13600
C 	C 	0.95069 0.12076 0.03003 -0.08000
C 	C 	0.96675 0.10807 0.99307 -0.04600
C 	C 	0.95111 0.12360 0.95670 0.15200
C 	C 	0.86407 0.18726 0.99388 0.01000
O 	O 	0.90196 0.15922 0.06685 -0.27500
H 	H 	0.96276 0.10900 0.05814 0.06800
O 	O 	0.96556 0.11036 0.92021 -0.27700
H 	H 	0.90507 0.16085 0.92899 0.06500
C 	C 	0.89425 0.25209 0.99428 0.11200
C 	C 	0.85796 0.27500 0.99153 -0.03200
C 	C 	0.79136 0.23342 0.98783 -0.12900
C 	C 	0.76130 0.16859 0.98798 0.19000
C 	C 	0.79780 0.14595 0.99138 -0.11200
O 	O 	0.95933 0.29329 0.99816 -0.27200
H 	H 	0.88156 0.32503 0.99186 0.05500
O 	O 	0.69628 0.12721 0.98442 -0.28000
H 	H 	0.77440 0.09597 0.99115 0.08000
H 	H 	0.00830 0.14922 0.91917 0.13900
H 	H 	0.96732 0.29456 0.96938 0.14200
H 	H 	0.67922 0.11123 0.95426 0.13600
H 	H 	0.93840 0.20306 0.08047 0.15400
C 	C 	0.24467 0.12738 0.95507 -0.09900
C 	C 	0.29016 0.17275 0.98953 -0.00700
C 	C 	0.27069 0.19161 0.02224 0.13900
C 	C 	0.20577 0.16300 0.02111 -0.08200
C 	C 	0.16001 0.11561 0.98746 -0.04800
C 	C 	0.17984 0.09932 0.95371 0.15300
C 	C 	0.35790 0.19916 0.99177 0.01300
O 	O 	0.31513 0.23885 0.05489 -0.27800
H 	H 	0.19088 0.17652 0.04687 0.06300
O 	O 	0.13571 0.05445 0.92001 -0.28700
H 	H 	0.25953 0.11330 0.92956 0.06700
C 	C 	0.38628 0.18039 0.01855 0.11300
C 	C 	0.45128 0.20781 0.02186 -0.04100
C 	C 	0.48804 0.25279 0.99772 -0.11700
C 	C 	0.45857 0.26869 0.96908 0.18900
C 	C 	0.39399 0.24258 0.96671 -0.11400
O 	O 	0.35093 0.13652 0.04235 -0.27900
H 	H 	0.47333 0.19489 0.04374 0.05900
O 	O 	0.49291 0.31011 0.94371 -0.28300
H 	H 	0.37195 0.25611 0.94536 0.07600
H 	H 	0.13054 0.07836 0.90079 0.14800
H 	H 	0.33328 0.09485 0.02522 0.14400
H 	H 	0.48851 0.28334 0.91846 0.14200
H 	H 	0.31941 0.21684 0.07612 0.15700
