data_crystal

_cell_length_a 14.69809
_cell_length_b 20.73585
_cell_length_c 28.95274
_cell_angle_alpha 89.99939
_cell_angle_beta  76.70773
_cell_angle_gamma 89.99919

_symmetry_space_group_name_	'P 1'
_symmetry_space_group_name_H-M	'P 1'

loop_
_symmetry_equiv_pos_as_xyz
  x,y,z

loop_
_atom_site_label
_atom_site_type_symbol
_atom_site_fract_x
_atom_site_fract_y
_atom_site_fract_z
_atom_site_charge
Cu	Cu	0.53920 0.42733 0.15981 0.93500
Cu	Cu	0.69915 0.50612 0.19846 0.88000
Cu	Cu	0.51283 0.56467 0.19794 0.90200
Cu	Cu	0.34179 0.49578 0.18083 0.91300
C 	C 	0.36924 0.35419 0.18084 0.33400
O 	O 	0.51312 0.44497 0.09540 -0.34900
C 	C 	0.68271 0.64262 0.19310 0.32400
O 	O 	0.44492 0.48452 0.20906 -0.63400
O 	O 	0.61004 0.50811 0.15821 -0.63900
O 	O 	0.63574 0.36883 0.17417 -0.35300
O 	O 	0.65939 0.43062 0.23505 -0.40700
O 	O 	0.32624 0.40300 0.16574 -0.35800
O 	O 	0.41584 0.61500 0.23873 -0.36100
C 	C 	0.32960 0.62007 0.23308 0.33300
C 	C 	0.48079 0.50084 0.08472 0.32800
O 	O 	0.43321 0.53822 0.11841 -0.35900
O 	O 	0.28461 0.56934 0.22182 -0.33400
O 	O 	0.46117 0.35279 0.17313 -0.31900
C 	C 	0.66227 0.37429 0.21420 0.35300
O 	O 	0.59228 0.64168 0.19388 -0.33600
O 	O 	0.73613 0.59201 0.17899 -0.39800
H 	H 	0.42891 0.47048 0.24265 0.19700
H 	H 	0.63604 0.52570 0.12609 0.18600
Cu	Cu	0.44999 0.42748 0.81177 0.93300
Cu	Cu	0.28581 0.50467 0.77509 0.89800
Cu	Cu	0.47246 0.56538 0.77474 0.90600
Cu	Cu	0.64580 0.49778 0.78989 0.91900
C 	C 	0.62159 0.35573 0.79002 0.33100
O 	O 	0.47785 0.44509 0.87579 -0.34800
C 	C 	0.30178 0.64112 0.77913 0.32100
O 	O 	0.54184 0.48587 0.76240 -0.63500
O 	O 	0.37694 0.50748 0.81436 -0.63800
O 	O 	0.35388 0.36811 0.79817 -0.36200
O 	O 	0.32595 0.42961 0.73806 -0.38400
O 	O 	0.66347 0.40522 0.80495 -0.32600
O 	O 	0.56748 0.61734 0.73401 -0.34300
C 	C 	0.65428 0.62255 0.73882 0.33500
C 	C 	0.50872 0.50140 0.88654 0.32800
O 	O 	0.55507 0.53936 0.85288 -0.35600
O 	O 	0.70052 0.57158 0.74863 -0.35600
O 	O 	0.52967 0.35374 0.79725 -0.35500
C 	C 	0.32573 0.37314 0.75853 0.33400
O 	O 	0.39115 0.64145 0.78051 -0.34600
O 	O 	0.24851 0.59075 0.79412 -0.35800
H 	H 	0.55722 0.47237 0.72870 0.18500
H 	H 	0.35132 0.52445 0.84670 0.18500
Cu	Cu	0.95290 0.92763 0.31092 0.93600
Cu	Cu	0.79529 0.00742 0.27026 0.88200
Cu	Cu	0.98144 0.06476 0.27379 0.90700
Cu	Cu	0.15085 0.99542 0.29042 0.91700
C 	C 	0.12280 0.85400 0.29091 0.33000
O 	O 	0.97834 0.94558 0.37541 -0.34300
C 	C 	0.81740 0.14419 0.27481 0.33000
O 	O 	0.04814 0.98437 0.26190 -0.63600
O 	O 	0.88224 0.00848 0.31207 -0.63700
O 	O 	0.85604 0.86968 0.29657 -0.33800
O 	O 	0.83354 0.93051 0.23486 -0.41400
O 	O 	0.16504 0.90287 0.30637 -0.32900
O 	O 	0.07777 0.11565 0.23329 -0.32200
C 	C 	0.16477 0.11951 0.23797 0.32800
C 	C 	0.01051 0.00152 0.38607 0.32500
O 	O 	0.05904 0.03857 0.35243 -0.36400
O 	O 	0.20893 0.06820 0.24892 -0.35600
O 	O 	0.03088 0.85272 0.29785 -0.32700
C 	C 	0.83071 0.87439 0.25616 0.33600
O 	O 	0.90355 0.14197 0.28106 -0.33900
O 	O 	0.75977 0.09508 0.28691 -0.39600
H 	H 	0.06420 0.97094 0.22818 0.19200
H 	H 	0.85494 0.02588 0.34411 0.18300
Cu	Cu	0.03475 0.92733 0.65982 0.93200
Cu	Cu	0.19740 0.00460 0.69766 0.89800
Cu	Cu	0.01099 0.06501 0.69718 0.90000
Cu	Cu	0.83905 0.99743 0.68045 0.91400
C 	C 	0.86342 0.85518 0.67973 0.32700
O 	O 	0.00864 0.94506 0.59543 -0.34500
C 	C 	0.18129 0.14102 0.69368 0.32400
O 	O 	0.94176 0.98542 0.70883 -0.63400
O 	O 	0.10735 0.00742 0.65782 -0.63900
O 	O 	0.13035 0.86801 0.67403 -0.35200
O 	O 	0.15665 0.92949 0.73451 -0.38400
O 	O 	0.82190 0.90494 0.66488 -0.35000
O 	O 	0.91509 0.11652 0.73771 -0.36400
C 	C 	0.82855 0.12179 0.73249 0.33100
C 	C 	0.97825 0.00144 0.58452 0.33000
O 	O 	0.93119 0.03930 0.61804 -0.36200
O 	O 	0.78301 0.07120 0.72144 -0.33200
O 	O 	0.95511 0.85356 0.67382 -0.31900
C 	C 	0.15748 0.87303 0.71396 0.33200
O 	O 	0.09192 0.14123 0.69226 -0.37000
O 	O 	0.23471 0.09069 0.67878 -0.35900
H 	H 	0.92544 0.97176 0.74250 0.18400
H 	H 	0.13353 0.02457 0.62558 0.18400
C 	C 	0.07511 0.01988 0.50342 -0.09000
C 	C 	0.98655 0.01804 0.53449 -0.11600
C 	C 	0.90610 0.02168 0.51621 0.34400
C 	C 	0.91428 0.02134 0.46712 -0.07700
C 	C 	0.00276 0.01821 0.43605 -0.12800
C 	C 	0.08330 0.02041 0.45433 0.35000
F 	F 	0.16941 0.01841 0.42461 -0.43800
H 	H 	0.13756 0.01791 0.51728 0.09400
H 	H 	0.85178 0.02047 0.45327 0.09200
F 	F 	0.81996 0.02095 0.54594 -0.43600
C 	C 	0.79892 0.67828 0.69487 -0.08100
C 	C 	0.70675 0.68197 0.72210 -0.11500
C 	C 	0.66558 0.74265 0.73427 0.34600
C 	C 	0.71665 0.79896 0.71992 -0.08600
C 	C 	0.80928 0.79535 0.69328 -0.11300
C 	C 	0.84992 0.73455 0.68033 0.34800
F 	F 	0.93796 0.72994 0.65284 -0.41500
H 	H 	0.83085 0.63178 0.68461 0.11800
H 	H 	0.68469 0.84546 0.73019 0.10500
F 	F 	0.57692 0.74706 0.76107 -0.42800
C 	C 	0.63355 0.23552 0.78950 -0.08200
C 	C 	0.67530 0.29578 0.77633 -0.11500
C 	C 	0.76812 0.29849 0.74961 0.34400
C 	C 	0.81827 0.24157 0.73615 -0.08400
C 	C 	0.77615 0.18139 0.74876 -0.11500
C 	C 	0.68367 0.17861 0.77595 0.34900
F 	F 	0.64300 0.12093 0.79009 -0.41600
H 	H 	0.56252 0.23274 0.81063 0.11500
H 	H 	0.88943 0.24422 0.71513 0.10600
F 	F 	0.80895 0.35619 0.73565 -0.43300
C 	C 	0.33825 0.25562 0.74092 -0.08100
C 	C 	0.29536 0.31512 0.73679 -0.12400
C 	C 	0.21937 0.31791 0.71490 0.34400
C 	C 	0.18466 0.26132 0.69900 -0.08400
C 	C 	0.22501 0.20136 0.70507 -0.11800
C 	C 	0.30315 0.19901 0.72546 0.34100
F 	F 	0.34262 0.14160 0.73219 -0.43100
H 	H 	0.39774 0.25306 0.75710 0.11000
H 	H 	0.12525 0.26399 0.68280 0.11100
F 	F 	0.17670 0.37500 0.71079 -0.43300
C 	C 	0.14514 0.75548 0.73147 -0.08400
C 	C 	0.18763 0.81505 0.73584 -0.12000
C 	C 	0.26309 0.81797 0.75811 0.34800
C 	C 	0.29774 0.76142 0.77410 -0.08500
C 	C 	0.25787 0.70139 0.76776 -0.11100
C 	C 	0.18018 0.69891 0.74704 0.34300
F 	F 	0.14115 0.64143 0.74009 -0.43100
H 	H 	0.08605 0.75282 0.71501 0.12700
H 	H 	0.35675 0.76419 0.79059 0.13300
F 	F 	0.30533 0.87514 0.76248 -0.43000
C 	C 	0.13446 0.73374 0.29017 -0.07600
C 	C 	0.17600 0.79398 0.27675 -0.10700
C 	C 	0.26848 0.79670 0.24961 0.34600
C 	C 	0.31862 0.73980 0.23608 -0.08700
C 	C 	0.27682 0.67962 0.24903 -0.11200
C 	C 	0.18453 0.67682 0.27648 0.35000
F 	F 	0.14411 0.61913 0.29082 -0.42100
H 	H 	0.06374 0.73099 0.31168 0.13200
H 	H 	0.38958 0.74247 0.21482 0.12500
F 	F 	0.30905 0.85440 0.23541 -0.43400
C 	C 	0.72221 0.81978 0.21398 -0.08300
C 	C 	0.79968 0.81651 0.23460 -0.12700
C 	C 	0.84371 0.75693 0.23720 0.34900
C 	C 	0.80721 0.70073 0.22197 -0.09100
C 	C 	0.72669 0.70330 0.20367 -0.11800
C 	C 	0.68582 0.76353 0.19845 0.34400
F 	F 	0.61125 0.76768 0.17830 -0.42300
H 	H 	0.68868 0.86566 0.21109 0.09600
H 	H 	0.84016 0.65485 0.22560 0.09900
F 	F 	0.92168 0.75343 0.25471 -0.42800
C 	C 	0.79421 0.29812 0.20906 -0.07800
C 	C 	0.70499 0.31903 0.23268 -0.13000
C 	C 	0.65463 0.28444 0.27198 0.35600
C 	C 	0.69212 0.22791 0.28645 -0.08400
C 	C 	0.78065 0.20610 0.26208 -0.11700
C 	C 	0.83225 0.24214 0.22381 0.33800
F 	F 	0.91779 0.22158 0.19980 -0.41200
H 	H 	0.83350 0.32474 0.17877 0.09300
H 	H 	0.65221 0.20092 0.31637 0.11000
F 	F 	0.56869 0.30484 0.29549 -0.40800
C 	C 	0.24945 0.27322 0.17121 -0.08200
C 	C 	0.31706 0.29405 0.19514 -0.11500
C 	C 	0.33616 0.25650 0.23219 0.34400
C 	C 	0.28747 0.19902 0.24541 -0.08500
C 	C 	0.21917 0.17841 0.22186 -0.11000
C 	C 	0.20102 0.21555 0.18426 0.35000
F 	F 	0.13815 0.19510 0.15966 -0.40200
H 	H 	0.23542 0.30120 0.14202 0.11600
H 	H 	0.30167 0.17103 0.27457 0.10800
F 	F 	0.40058 0.27640 0.25601 -0.40900
C 	C 	0.57587 0.51972 0.00327 -0.08300
C 	C 	0.48780 0.51733 0.03477 -0.12200
C 	C 	0.40669 0.52048 0.01700 0.34700
C 	C 	0.41380 0.52026 0.96800 -0.08400
C 	C 	0.50185 0.51777 0.93650 -0.12100
C 	C 	0.58298 0.52037 0.95427 0.34700
F 	F 	0.66865 0.51896 0.92412 -0.43400
H 	H 	0.63881 0.51812 0.01673 0.09400
H 	H 	0.35085 0.51903 0.95454 0.09300
F 	F 	0.32100 0.51916 0.04714 -0.43900
