data_crystal

_cell_length_a 21.81407
_cell_length_b 20.49739
_cell_length_c 49.99021
_cell_angle_alpha 89.86690
_cell_angle_beta  89.87000
_cell_angle_gamma 119.42320

_symmetry_space_group_name_	'P 1'
_symmetry_space_group_name_H-M	'P 1'

loop_
_symmetry_equiv_pos_as_xyz
  x,y,z

loop_
_atom_site_label
_atom_site_type_symbol
_atom_site_fract_x
_atom_site_fract_y
_atom_site_fract_z
_atom_site_charge
C 	C 	0.68016 0.31424 0.84517 0.29500
C 	C 	0.80296 0.55241 0.92457 0.32500
C 	C 	0.85677 0.39793 0.88159 0.31100
C 	C 	0.63101 0.48283 0.89326 0.33300
C 	C 	0.74681 0.33809 0.95919 0.36800
C 	C 	0.57226 0.23753 0.92496 0.34000
Ni	Ni	0.75574 0.45802 0.87552 1.11700
Ni	Ni	0.67276 0.40503 0.93219 1.13300
Ni	Ni	0.71450 0.29603 0.90210 1.12200
O 	O 	0.69732 0.38605 0.84504 -0.36300
O 	O 	0.71284 0.28894 0.86110 -0.36700
O 	O 	0.74639 0.40074 0.95447 -0.36600
O 	O 	0.82403 0.52630 0.90481 -0.36900
O 	O 	0.73620 0.51867 0.93159 -0.35400
O 	O 	0.60964 0.23155 0.90502 -0.36300
O 	O 	0.83112 0.42787 0.86482 -0.36200
O 	O 	0.82048 0.36052 0.90263 -0.38000
O 	O 	0.59836 0.29733 0.94101 -0.35700
O 	O 	0.69076 0.50779 0.87914 -0.33400
O 	O 	0.60729 0.42313 0.90897 -0.36800
O 	O 	0.71957 0.28229 0.94204 -0.38200
O 	O 	0.70085 0.38040 0.89969 -0.72000
H 	H 	0.65556 0.35714 0.89020 0.16600
C 	C 	0.61749 0.44145 0.58448 0.33500
C 	C 	0.69136 0.25108 0.65015 0.30700
C 	C 	0.78911 0.47771 0.62054 0.31000
C 	C 	0.51299 0.20808 0.61658 0.28800
C 	C 	0.79320 0.30397 0.57199 0.35100
C 	C 	0.62223 0.25714 0.53825 0.34100
Ni	Ni	0.64176 0.35389 0.62904 1.11500
Ni	Ni	0.64689 0.22374 0.59338 1.12600
Ni	Ni	0.72089 0.39149 0.57133 1.12600
O 	O 	0.63475 0.44176 0.61006 -0.34200
O 	O 	0.65008 0.42650 0.56488 -0.36900
O 	O 	0.73174 0.24198 0.57125 -0.33100
O 	O 	0.64489 0.27342 0.65366 -0.36600
O 	O 	0.70669 0.23763 0.62610 -0.37200
O 	O 	0.68472 0.31933 0.53976 -0.35000
O 	O 	0.74820 0.42234 0.63648 -0.37100
O 	O 	0.76881 0.48145 0.59613 -0.36000
O 	O 	0.59522 0.20994 0.55880 -0.37200
O 	O 	0.53534 0.27753 0.62499 -0.36200
O 	O 	0.55616 0.17955 0.61570 -0.36600
O 	O 	0.79741 0.36739 0.57955 -0.39000
O 	O 	0.65578 0.32057 0.59583 -0.71800
H 	H 	0.61178 0.31036 0.58692 0.15300
C 	C 	0.21626 0.10624 0.77843 0.28900
C 	C 	0.94565 0.84145 0.75619 0.30700
C 	C 	0.11950 0.00213 0.71334 0.30000
C 	C 	0.03399 0.93123 0.82577 0.29200
C 	C 	0.94733 0.04164 0.73298 0.30200
C 	C 	0.03628 0.13624 0.79918 0.29500
Ni	Ni	0.09332 0.94811 0.77021 1.11600
Ni	Ni	0.96184 0.97668 0.78418 1.12300
Ni	Ni	0.09287 0.09897 0.75031 1.12200
O 	O 	0.19648 0.03832 0.76877 -0.36700
O 	O 	0.18312 0.14380 0.77180 -0.37000
O 	O 	0.92805 0.02810 0.75831 -0.37800
O 	O 	0.99807 0.84919 0.77111 -0.37400
O 	O 	0.92067 0.88790 0.75873 -0.37000
O 	O 	0.05213 0.15046 0.77331 -0.37800
O 	O 	0.08916 0.94251 0.72872 -0.36800
O 	O 	0.14553 0.06948 0.72366 -0.37400
O 	O 	0.99420 0.06683 0.80802 -0.38400
O 	O 	0.08965 0.94092 0.81171 -0.36400
O 	O 	0.97345 0.91416 0.81378 -0.36800
O 	O 	0.01050 0.05606 0.72535 -0.38300
O 	O 	0.05696 0.01383 0.77299 -0.71600
H 	H 	0.08044 0.03908 0.78966 0.15000
C 	C 	0.18560 0.70179 0.40631 0.29500
C 	C 	0.37332 0.64386 0.47746 0.35900
C 	C 	0.36858 0.83111 0.43113 0.36100
C 	C 	0.18926 0.51316 0.45692 0.34100
C 	C 	0.44783 0.69629 0.39419 0.31800
C 	C 	0.26310 0.55053 0.37038 0.29100
Ni	Ni	0.26836 0.68121 0.45253 1.12700
Ni	Ni	0.32543 0.57938 0.42427 1.12600
Ni	Ni	0.32028 0.70899 0.39077 1.12300
O 	O 	0.21296 0.72343 0.43064 -0.33400
O 	O 	0.22010 0.68871 0.38692 -0.37100
O 	O 	0.40687 0.62381 0.39805 -0.37100
O 	O 	0.31538 0.64710 0.48161 -0.35600
O 	O 	0.39423 0.64204 0.45302 -0.35500
O 	O 	0.30451 0.62361 0.36563 -0.37400
O 	O 	0.36060 0.78236 0.44965 -0.34200
O 	O 	0.33978 0.80828 0.40747 -0.37500
O 	O 	0.26367 0.51976 0.39378 -0.36700
O 	O 	0.18308 0.57452 0.45684 -0.34200
O 	O 	0.25116 0.51619 0.45270 -0.36900
O 	O 	0.42254 0.74248 0.39604 -0.38100
O 	O 	0.28783 0.64500 0.42117 -0.72100
H 	H 	0.23981 0.60921 0.41525 0.16900
C 	C 	0.42415 0.65224 0.02214 0.33900
C 	C 	0.28452 0.66818 0.12295 0.31100
C 	C 	0.27332 0.49906 0.06387 0.31200
C 	C 	0.43598 0.81908 0.08941 0.29800
C 	C 	0.14866 0.60092 0.05465 0.36900
C 	C 	0.29334 0.76848 0.01450 0.34700
Ni	Ni	0.37669 0.65439 0.08067 1.11600
Ni	Ni	0.28015 0.73265 0.07197 1.12400
Ni	Ni	0.27578 0.61698 0.02887 1.13000
O 	O 	0.42165 0.62928 0.04744 -0.36200
O 	O 	0.37062 0.65622 0.01113 -0.32700
O 	O 	0.18238 0.67437 0.05654 -0.38600
O 	O 	0.34707 0.67556 0.11842 -0.36400
O 	O 	0.24370 0.66029 0.10286 -0.37500
O 	O 	0.25749 0.69470 0.01028 -0.35300
O 	O 	0.29905 0.54330 0.08457 -0.36300
O 	O 	0.28600 0.52678 0.03950 -0.35900
O 	O 	0.30761 0.79693 0.03904 -0.37100
O 	O 	0.45009 0.76709 0.08041 -0.36400
O 	O 	0.36982 0.80601 0.09267 -0.36800
O 	O 	0.18184 0.56533 0.04710 -0.37300
O 	O 	0.32526 0.68181 0.05756 -0.72200
H 	H 	0.36366 0.72353 0.04765 0.17700
C 	C 	0.80492 0.88584 0.25638 0.28800
C 	C 	0.04461 0.09973 0.18968 0.30700
C 	C 	0.83178 0.90580 0.18346 0.30900
C 	C 	0.01856 0.10061 0.26734 0.29500
C 	C 	0.03056 0.88479 0.19372 0.31300
C 	C 	0.99998 0.87624 0.26988 0.27500
Ni	Ni	0.91460 0.02103 0.22343 1.10800
Ni	Ni	0.05350 0.00370 0.23243 1.11900
Ni	Ni	0.90422 0.85707 0.22375 1.12200
O 	O 	0.81661 0.94111 0.23937 -0.36600
O 	O 	0.83617 0.84433 0.25362 -0.37500
O 	O 	0.06688 0.92351 0.21454 -0.37700
O 	O 	0.00271 0.10994 0.20594 -0.36800
O 	O 	0.06742 0.05292 0.19589 -0.37900
O 	O 	0.96448 0.83429 0.24905 -0.37300
O 	O 	0.88476 0.97359 0.18598 -0.37700
O 	O 	0.82733 0.85110 0.19872 -0.36800
O 	O 	0.04419 0.94942 0.26715 -0.36800
O 	O 	0.95278 0.07667 0.25953 -0.37700
O 	O 	0.06539 0.09806 0.25095 -0.37400
O 	O 	0.96281 0.86235 0.19175 -0.38200
O 	O 	0.95381 0.96084 0.23214 -0.71500
H 	H 	0.94523 0.95763 0.25157 0.15300
C 	C 	0.09604 0.24773 0.13232 0.00700
C 	C 	0.09156 0.28277 0.10896 -0.04900
C 	C 	0.15034 0.31487 0.09184 0.03600
C 	C 	0.20901 0.30568 0.09712 0.00100
C 	C 	0.21244 0.26878 0.12024 -0.04500
C 	C 	0.15388 0.23745 0.13734 0.01900
S 	S 	0.02797 0.18496 0.15012 0.04100
C 	C 	0.06913 0.14374 0.16490 -0.07300
C 	C 	0.13927 0.17954 0.15606 -0.01300
S 	S 	0.27842 0.37607 0.08249 0.05500
C 	C 	0.23780 0.41791 0.06786 -0.05800
C 	C 	0.16644 0.37735 0.07511 -0.01700
H 	H 	0.04574 0.28871 0.10500 0.07000
H 	H 	0.25866 0.26390 0.12456 0.05500
H 	H 	0.17785 0.16436 0.16270 0.04800
H 	H 	0.13056 0.39897 0.07224 0.09200
C 	C 	0.62030 0.95042 0.11804 -0.00100
C 	C 	0.68881 0.96079 0.11941 -0.04600
C 	C 	0.71147 0.94636 0.14386 0.01900
C 	C 	0.66500 0.91818 0.16565 -0.00000
C 	C 	0.59417 0.89864 0.16319 -0.05100
C 	C 	0.57240 0.91719 0.13932 0.02300
S 	S 	0.57371 0.93027 0.09006 0.06700
C 	C 	0.49269 0.88314 0.10326 -0.06600
C 	C 	0.50093 0.88072 0.13106 -0.01900
S 	S 	0.69504 0.87707 0.18640 0.03900
C 	C 	0.76833 0.89536 0.16961 -0.07500
C 	C 	0.77062 0.93527 0.14638 -0.01600
H 	H 	0.72139 0.97441 0.10163 0.05800
H 	H 	0.55632 0.86567 0.17855 0.05200
H 	H 	0.45862 0.84183 0.14394 0.04800
H 	H 	0.81322 0.95568 0.13193 0.05200
C 	C 	0.16416 0.83581 0.16111 0.00300
C 	C 	0.23101 0.84228 0.16143 -0.05400
C 	C 	0.23564 0.77698 0.16554 0.02200
C 	C 	0.17514 0.70943 0.17253 -0.00400
C 	C 	0.10855 0.70440 0.17359 -0.04600
C 	C 	0.10401 0.76907 0.16818 0.02000
S 	S 	0.14747 0.90565 0.16580 0.04500
C 	C 	0.06301 0.85481 0.17534 -0.07000
C 	C 	0.04673 0.77930 0.17620 -0.01200
S 	S 	0.18787 0.64032 0.16201 0.05700
C 	C 	0.26857 0.69043 0.14875 -0.07700
C 	C 	0.28874 0.76618 0.15316 -0.02500
H 	H 	0.27736 0.89502 0.15655 0.05500
H 	H 	0.06183 0.65167 0.17811 0.05500
H 	H 	0.00049 0.73610 0.18629 0.04700
H 	H 	0.33309 0.81127 0.14288 0.05000
C 	C 	0.61095 0.73639 0.35035 -0.00000
C 	C 	0.63472 0.72369 0.32588 -0.04900
C 	C 	0.66421 0.78267 0.30735 0.01900
C 	C 	0.66609 0.85068 0.31269 0.00300
C 	C 	0.64407 0.86433 0.33730 -0.05100
C 	C 	0.61309 0.80490 0.35574 0.02600
S 	S 	0.54551 0.67017 0.36819 0.05600
C 	C 	0.52006 0.72455 0.38421 -0.06200
C 	C 	0.56235 0.79833 0.37495 -0.01200
S 	S 	0.72383 0.91573 0.29201 0.03700
C 	C 	0.74480 0.85942 0.27477 -0.06800
C 	C 	0.70891 0.78732 0.28597 -0.01700
H 	H 	0.63066 0.66997 0.32150 0.05300
H 	H 	0.64707 0.91771 0.34137 0.06000
H 	H 	0.54976 0.84254 0.37855 0.06000
H 	H 	0.71981 0.74270 0.28082 0.05100
C 	C 	0.13845 0.39023 0.32281 0.00100
C 	C 	0.07366 0.32600 0.31810 -0.04500
C 	C 	0.07307 0.25767 0.31486 0.01800
C 	C 	0.13474 0.25344 0.31903 0.00700
C 	C 	0.19946 0.31780 0.32364 -0.05100
C 	C 	0.20037 0.38634 0.32618 0.02300
S 	S 	0.14893 0.46716 0.33797 0.04400
C 	C 	0.23272 0.50084 0.34742 -0.06500
C 	C 	0.25364 0.44869 0.33997 -0.01500
S 	S 	0.12584 0.17825 0.30321 0.03500
C 	C 	0.04410 0.14642 0.29163 -0.07200
C 	C 	0.02188 0.19736 0.29946 -0.00600
H 	H 	0.02600 0.32956 0.31587 0.05600
H 	H 	0.24724 0.31441 0.32573 0.05500
H 	H 	0.30045 0.44981 0.34777 0.05200
H 	H 	0.97660 0.19784 0.29081 0.04400
C 	C 	0.03520 0.75804 0.32231 0.00800
C 	C 	0.02866 0.69834 0.33788 -0.05200
C 	C 	0.05357 0.71358 0.36425 0.02800
C 	C 	0.07666 0.78513 0.37527 -0.00200
C 	C 	0.08198 0.84454 0.35956 -0.04500
C 	C 	0.05939 0.82949 0.33297 0.02100
S 	S 	0.99105 0.75094 0.29451 0.02500
C 	C 	0.00269 0.83818 0.29440 -0.05400
C 	C 	0.04248 0.87564 0.31701 -0.02000
S 	S 	0.13091 0.79579 0.40016 0.07200
C 	C 	0.12584 0.71175 0.39884 -0.05900
C 	C 	0.08092 0.67228 0.37761 -0.01400
H 	H 	0.00934 0.64319 0.32933 0.05700
H 	H 	0.10291 0.90030 0.36777 0.06000
H 	H 	0.05828 0.93329 0.32177 0.05500
H 	H 	0.07814 0.62217 0.36924 0.05800
C 	C 	0.58590 0.14892 0.47494 -0.13700
C 	C 	0.51529 0.12953 0.47085 0.01500
C 	C 	0.48757 0.16922 0.48454 0.28800
C 	C 	0.52579 0.21771 0.50533 -0.05700
C 	C 	0.59290 0.22918 0.51172 -0.13600
C 	C 	0.62482 0.19919 0.49515 0.37400
C 	C 	0.46727 0.05763 0.45774 0.02600
F 	F 	0.42140 0.15589 0.47924 -0.41600
H 	H 	0.50164 0.24274 0.51747 0.09300
F 	F 	0.69130 0.21324 0.50023 -0.40900
H 	H 	0.60870 0.12040 0.46401 0.13700
C 	C 	0.48301 0.04116 0.43216 0.27000
C 	C 	0.44813 0.96733 0.42277 -0.03600
C 	C 	0.39677 0.90996 0.43869 -0.15500
C 	C 	0.37637 0.92784 0.46302 0.39000
C 	C 	0.41192 0.00103 0.47260 -0.15500
F 	F 	0.53385 0.09603 0.41691 -0.42200
H 	H 	0.46292 0.95435 0.40363 0.08600
F 	F 	0.32329 0.87371 0.47775 -0.44500
H 	H 	0.39876 0.01308 0.49222 0.13500
C 	C 	0.90502 0.26604 0.52359 -0.14500
C 	C 	0.96996 0.33157 0.52665 0.01400
C 	C 	0.97960 0.37971 0.54815 0.29300
C 	C 	0.92294 0.36611 0.56478 -0.06000
C 	C 	0.85572 0.30538 0.55973 -0.13800
C 	C 	0.84805 0.25267 0.54006 0.37900
C 	C 	0.02278 0.35649 0.50494 0.01400
F 	F 	0.04257 0.44263 0.55173 -0.40200
H 	H 	0.93045 0.40524 0.58065 0.09800
F 	F 	0.78494 0.19031 0.53610 -0.40600
H 	H 	0.89768 0.22750 0.50752 0.12500
C 	C 	0.09165 0.37129 0.51024 0.30900
C 	C 	0.14631 0.41594 0.49258 -0.05500
C 	C 	0.13229 0.44570 0.46954 -0.13400
C 	C 	0.06219 0.42195 0.46249 0.37100
C 	C 	0.00766 0.37772 0.48019 -0.13900
F 	F 	0.10632 0.34701 0.53337 -0.39600
H 	H 	0.20008 0.43219 0.49787 0.11100
F 	F 	0.04749 0.44663 0.43945 -0.43900
H 	H 	0.95429 0.36444 0.47552 0.11700
C 	C 	0.55172 0.57773 0.57245 -0.14900
C 	C 	0.49815 0.53788 0.55383 0.01700
C 	C 	0.47810 0.46292 0.54821 0.29900
C 	C 	0.51411 0.42967 0.55992 -0.05800
C 	C 	0.57059 0.47095 0.57721 -0.14100
C 	C 	0.58789 0.54442 0.58414 0.37300
C 	C 	0.46913 0.57695 0.53787 0.01100
F 	F 	0.42628 0.42367 0.53028 -0.40600
H 	H 	0.50009 0.37275 0.55466 0.09000
F 	F 	0.64234 0.58497 0.60092 -0.43900
H 	H 	0.56713 0.63540 0.57704 0.12000
C 	C 	0.39751 0.55572 0.53988 0.30700
C 	C 	0.36700 0.58150 0.52104 -0.05500
C 	C 	0.40789 0.62895 0.50011 -0.14000
C 	C 	0.48072 0.65499 0.49945 0.37400
C 	C 	0.51107 0.62888 0.51823 -0.14600
F 	F 	0.35689 0.50747 0.55937 -0.40000
H 	H 	0.31095 0.56175 0.52198 0.11000
F 	F 	0.52172 0.70407 0.48022 -0.42900
H 	H 	0.56666 0.64658 0.51684 0.11900
C 	C 	0.82695 0.22353 0.69068 -0.00100
C 	C 	0.88395 0.21055 0.68783 -0.04800
C 	C 	0.87317 0.13873 0.69358 0.02200
C 	C 	0.80621 0.08110 0.70093 0.00300
C 	C 	0.74912 0.09382 0.70380 -0.05000
C 	C 	0.75928 0.16501 0.69710 0.02100
S 	S 	0.81736 0.28612 0.67285 0.04900
C 	C 	0.72946 0.24463 0.67310 -0.07400
C 	C 	0.70448 0.17703 0.68732 -0.01500
S 	S 	0.81601 0.01638 0.71742 0.04400
C 	C 	0.90356 0.05541 0.71414 -0.07200
C 	C 	0.92810 0.12413 0.70078 -0.01400
H 	H 	0.93522 0.25516 0.68168 0.05600
H 	H 	0.69778 0.04896 0.70974 0.05400
H 	H 	0.65018 0.13267 0.68634 0.04700
H 	H 	0.98313 0.16677 0.70033 0.04400
C 	C 	0.22048 0.99063 0.65087 0.00800
C 	C 	0.28430 0.99737 0.64198 -0.04200
C 	C 	0.32748 0.05830 0.62541 0.01900
C 	C 	0.30772 0.11223 0.61892 0.00600
C 	C 	0.24934 0.11112 0.63106 -0.04600
C 	C 	0.20484 0.04884 0.64682 0.02200
S 	S 	0.17931 0.94543 0.67862 0.04100
C 	C 	0.13851 0.99416 0.68586 -0.06200
C 	C 	0.15880 0.05085 0.66651 -0.01800
S 	S 	0.38000 0.19020 0.60998 0.06400
C 	C 	0.43728 0.15854 0.61249 -0.07000
C 	C 	0.40055 0.08441 0.62181 -0.01100
H 	H 	0.30207 0.95965 0.64925 0.05600
H 	H 	0.24171 0.15945 0.62991 0.06400
H 	H 	0.14995 0.09812 0.66888 0.05300
H 	H 	0.42660 0.05506 0.62964 0.05300
C 	C 	0.92587 0.62537 0.66921 0.00000
C 	C 	0.94277 0.64788 0.69587 -0.04900
C 	C 	0.94431 0.71419 0.70383 0.01900
C 	C 	0.92567 0.75406 0.68585 0.00200
C 	C 	0.89869 0.72546 0.66054 -0.04900
C 	C 	0.90117 0.66165 0.65193 0.02700
S 	S 	0.89287 0.53757 0.65885 0.04500
C 	C 	0.85075 0.54296 0.63172 -0.06600
C 	C 	0.85912 0.61532 0.63077 -0.01500
S 	S 	0.90545 0.80946 0.70353 0.05400
C 	C 	0.92135 0.78753 0.73409 -0.07500
C 	C 	0.94297 0.73374 0.73093 -0.01600
H 	H 	0.95009 0.61269 0.71025 0.05100
H 	H 	0.87319 0.74940 0.64861 0.06400
H 	H 	0.82696 0.62976 0.61828 0.07300
H 	H 	0.95783 0.71023 0.74747 0.04800
C 	C 	0.80890 0.38129 0.02882 -0.13800
C 	C 	0.87708 0.39252 0.02512 0.00800
C 	C 	0.89140 0.35992 0.00299 0.29100
C 	C 	0.84224 0.32926 0.98236 -0.05100
C 	C 	0.77906 0.33127 0.98390 -0.14400
C 	C 	0.75956 0.34994 0.00830 0.37700
C 	C 	0.93591 0.45310 0.03964 0.01600
F 	F 	0.95590 0.36604 0.00003 -0.42800
H 	H 	0.85652 0.31176 0.96404 0.08900
F 	F 	0.69587 0.34604 0.01087 -0.43600
H 	H 	0.79632 0.40320 0.04643 0.11800
C 	C 	0.96620 0.52685 0.02985 0.28200
C 	C 	0.03398 0.58001 0.03772 -0.04500
C 	C 	0.07158 0.55968 0.05538 -0.15300
C 	C 	0.03671 0.48986 0.06841 0.38000
C 	C 	0.96946 0.43606 0.06015 -0.15100
F 	F 	0.93257 0.54492 0.01087 -0.42200
H 	H 	0.05950 0.63474 0.02827 0.09600
F 	F 	0.06978 0.47271 0.08787 -0.45300
H 	H 	0.94522 0.38009 0.06858 0.11300
C 	C 	0.41315 0.04414 0.92389 -0.14500
C 	C 	0.40502 0.02658 0.95126 0.00700
C 	C 	0.44584 0.08195 0.96998 0.30500
C 	C 	0.49699 0.15285 0.96133 -0.06200
C 	C 	0.50858 0.16910 0.93388 -0.13000
C 	C 	0.46439 0.11536 0.91519 0.36500
C 	C 	0.35947 0.94872 0.96027 0.01500
F 	F 	0.43853 0.06565 0.99654 -0.41100
H 	H 	0.53025 0.19385 0.97596 0.11900
F 	F 	0.47168 0.13179 0.88867 -0.45100
H 	H 	0.38101 0.00212 0.90934 0.10900
C 	C 	0.30260 0.93169 0.97751 0.30400
C 	C 	0.27537 0.86753 0.99357 -0.05200
C 	C 	0.30398 0.81947 0.99213 -0.13400
C 	C 	0.35328 0.83065 0.97207 0.37200
C 	C 	0.38139 0.89550 0.95629 -0.14300
F 	F 	0.27787 0.98051 0.98032 -0.40800
H 	H 	0.23523 0.85769 0.00833 0.09800
F 	F 	0.37767 0.78160 0.96919 -0.41200
H 	H 	0.42367 0.90696 0.94236 0.12100
C 	C 	0.53149 0.69096 0.95977 -0.14100
C 	C 	0.53816 0.62643 0.95873 0.01100
C 	C 	0.52313 0.58116 0.98167 0.30300
C 	C 	0.49296 0.59490 0.00416 -0.05900
C 	C 	0.47835 0.65436 0.00397 -0.12900
C 	C 	0.50286 0.70568 0.98253 0.37300
C 	C 	0.55454 0.60236 0.93315 0.01000
F 	F 	0.53422 0.52152 0.98161 -0.41400
H 	H 	0.47641 0.55622 0.02090 0.10300
F 	F 	0.49553 0.76767 0.98321 -0.41000
H 	H 	0.54575 0.72799 0.94259 0.11900
C 	C 	0.50553 0.53372 0.92177 0.30500
C 	C 	0.52816 0.49880 0.90332 -0.06000
C 	C 	0.59987 0.53184 0.89667 -0.13400
C 	C 	0.64398 0.60770 0.90293 0.36700
C 	C 	0.62239 0.64203 0.92210 -0.14800
F 	F 	0.43762 0.49803 0.93032 -0.41100
H 	H 	0.49187 0.44241 0.89676 0.10200
F 	F 	0.70911 0.64624 0.89191 -0.45000
H 	H 	0.65931 0.69744 0.92934 0.10800
C 	C 	0.04487 0.27342 0.85548 -0.00200
C 	C 	0.01094 0.28885 0.87630 -0.02900
C 	C 	0.99848 0.34938 0.87318 0.00600
C 	C 	0.01622 0.39023 0.84906 0.01800
C 	C 	0.04119 0.36807 0.82702 -0.05500
C 	C 	0.05753 0.31046 0.83066 0.02700
S 	S 	0.03800 0.18996 0.85022 0.05200
C 	C 	0.05518 0.19945 0.81738 -0.07100
C 	C 	0.06355 0.26882 0.80918 -0.01600
S 	S 	0.96704 0.43138 0.84671 0.03500
C 	C 	0.92554 0.40371 0.87619 -0.07100
C 	C 	0.94776 0.35731 0.88852 -0.00700
H 	H 	0.99070 0.25202 0.89353 0.05100
H 	H 	0.04337 0.39136 0.80732 0.05500
H 	H 	0.06333 0.28363 0.78838 0.05200
H 	H 	0.92079 0.32178 0.90554 0.05400
C 	C 	0.41490 0.22442 0.79636 0.00300
C 	C 	0.48578 0.26455 0.78912 -0.04800
C 	C 	0.53106 0.24009 0.79921 0.02100
C 	C 	0.50353 0.17184 0.81342 -0.00100
C 	C 	0.43143 0.12957 0.81927 -0.03600
C 	C 	0.38715 0.15617 0.81006 0.02600
S 	S 	0.34971 0.22830 0.78077 0.04700
C 	C 	0.28410 0.14661 0.79196 -0.06800
C 	C 	0.31324 0.11157 0.80748 -0.01500
S 	S 	0.56603 0.17816 0.83387 0.08700
C 	C 	0.62971 0.26388 0.82536 -0.07800
C 	C 	0.60228 0.29075 0.80547 -0.01300
H 	H 	0.50611 0.31637 0.77788 0.05400
H 	H 	0.41082 0.07848 0.83096 0.07100
H 	H 	0.28409 0.05341 0.81368 0.04900
H 	H 	0.62794 0.34914 0.79948 0.05400
C 	C 	0.02764 0.84817 0.89670 0.01100
C 	C 	0.01606 0.78295 0.91002 -0.04100
C 	C 	0.95351 0.74249 0.92468 0.02500
C 	C 	0.90457 0.76834 0.92626 -0.00400
C 	C 	0.91237 0.82826 0.91029 -0.03600
C 	C 	0.97443 0.86799 0.89530 0.01900
S 	S 	0.07590 0.87964 0.86903 0.05100
C 	C 	0.03428 0.92076 0.85487 -0.06300
C 	C 	0.97811 0.90873 0.87172 -0.01700
S 	S 	0.82679 0.69468 0.93306 0.10700
C 	C 	0.85026 0.62854 0.93428 -0.06600
C 	C 	0.92313 0.66431 0.92950 -0.00500
H 	H 	0.05108 0.76024 0.90682 0.06000
H 	H 	0.86868 0.83873 0.90753 0.06300
H 	H 	0.93576 0.91846 0.86543 0.05300
H 	H 	0.95037 0.63353 0.92478 0.06200
