data_crystal

_cell_length_a 23.90454
_cell_length_b 23.98954
_cell_length_c 52.58836
_cell_angle_alpha 89.86504
_cell_angle_beta  89.86669
_cell_angle_gamma 119.65111

_symmetry_space_group_name_	'P 1'
_symmetry_space_group_name_H-M	'P 1'

loop_
_symmetry_equiv_pos_as_xyz
  x,y,z

loop_
_atom_site_label
_atom_site_type_symbol
_atom_site_fract_x
_atom_site_fract_y
_atom_site_fract_z
_atom_site_charge
Ni	Ni	0.05397 0.96123 0.74692 1.11300
Ni	Ni	0.03076 0.08329 0.74272 1.12200
O 	O 	0.03374 0.11530 0.21565 -0.37300
O 	O 	0.03724 0.92504 0.27983 -0.37400
O 	O 	0.00145 0.11465 0.26736 -0.36900
O 	O 	0.02333 0.91366 0.22416 -0.38300
O 	O 	0.00911 0.01021 0.25234 -0.71400
H 	H 	0.00545 0.01856 0.27043 0.16100
C 	C 	0.07235 0.51724 0.48992 -0.00300
C 	C 	0.02141 0.51727 0.47681 -0.02500
C 	C 	0.07040 0.51316 0.51653 -0.03200
H 	H 	0.11013 0.51437 0.52688 0.04500
C 	C 	0.97592 0.57364 0.02921 -0.05300
C 	C 	0.00148 0.55169 0.04817 0.01800
C 	C 	0.68149 0.45578 0.96296 0.30900
C 	C 	0.57686 0.18509 0.93632 0.32800
C 	C 	0.52021 0.29371 0.90853 0.31000
Ni	Ni	0.60591 0.31290 0.95619 1.11400
Ni	Ni	0.64016 0.29045 0.89882 1.12200
O 	O 	0.62352 0.40620 0.95861 -0.37500
O 	O 	0.59844 0.22310 0.95603 -0.37300
O 	O 	0.57010 0.20683 0.91427 -0.38100
O 	O 	0.70389 0.36370 0.87598 -0.38000
O 	O 	0.52299 0.28055 0.93309 -0.36300
O 	O 	0.57000 0.31238 0.89294 -0.38300
O 	O 	0.66120 0.34374 0.92778 -0.71600
H 	H 	0.65103 0.37619 0.92124 0.16300
C 	C 	0.55342 0.19001 0.56617 0.33000
C 	C 	0.62179 0.38788 0.53423 0.33100
C 	C 	0.56398 0.34523 0.61327 0.33200
Ni	Ni	0.63361 0.27587 0.60812 1.12200
Ni	Ni	0.68480 0.41436 0.58347 1.12100
O 	O 	0.55956 0.29163 0.60550 -0.38900
O 	O 	0.57368 0.24333 0.55390 -0.38200
O 	O 	0.57822 0.19159 0.58864 -0.36900
O 	O 	0.65411 0.36066 0.52569 -0.36900
O 	O 	0.61283 0.38997 0.55852 -0.38800
O 	O 	0.61840 0.39980 0.61077 -0.38300
O 	O 	0.67977 0.33311 0.58085 -0.71300
C 	C 	0.12105 0.07801 0.77986 0.32900
C 	C 	0.12742 0.07868 0.71004 0.31400
O 	O 	0.09581 0.01562 0.77924 -0.37200
O 	O 	0.11593 0.10895 0.76026 -0.38600
O 	O 	0.12691 0.03000 0.72279 -0.36300
O 	O 	0.07802 0.08897 0.71031 -0.38500
C 	C 	0.27263 0.78904 0.41365 0.30500
C 	C 	0.42335 0.66667 0.45167 0.33200
C 	C 	0.44284 0.84898 0.41556 0.32900
C 	C 	0.24479 0.60865 0.45538 0.30800
C 	C 	0.42521 0.68751 0.36982 0.33200
C 	C 	0.24982 0.60516 0.36732 0.31400
Ni	Ni	0.35255 0.74041 0.44458 1.11400
Ni	Ni	0.32991 0.61857 0.41075 1.12100
Ni	Ni	0.34569 0.74397 0.38285 1.12200
O 	O 	0.31200 0.79831 0.43335 -0.36300
O 	O 	0.27192 0.75699 0.39303 -0.38000
O 	O 	0.37829 0.63134 0.37751 -0.38600
O 	O 	0.39432 0.69316 0.46370 -0.36800
O 	O 	0.41703 0.65850 0.42723 -0.38900
O 	O 	0.28862 0.66623 0.36016 -0.37400
O 	O 	0.43981 0.80150 0.42831 -0.38300
O 	O 	0.40394 0.83594 0.39608 -0.36900
O 	O 	0.24894 0.58554 0.39083 -0.39300
O 	O 	0.26817 0.67021 0.46029 -0.37300
O 	O 	0.28101 0.58665 0.44484 -0.37400
O 	O 	0.42593 0.74069 0.37585 -0.38700
O 	O 	0.32614 0.69541 0.41372 -0.71200
H 	H 	0.27926 0.67791 0.41480 0.16700
C 	C 	0.41960 0.59801 0.06206 0.30300
C 	C 	0.26420 0.65415 0.13433 0.33000
C 	C 	0.24453 0.48909 0.08284 0.32700
C 	C 	0.43505 0.74643 0.11675 0.30400
C 	C 	0.19410 0.62551 0.05810 0.32600
C 	C 	0.36865 0.74308 0.03363 0.30700
Ni	Ni	0.34439 0.60645 0.10769 1.11400
Ni	Ni	0.31351 0.71422 0.08541 1.12000
Ni	Ni	0.30231 0.60317 0.04874 1.12400
O 	O 	0.38966 0.57011 0.08374 -0.36400
O 	O 	0.38971 0.61104 0.04366 -0.37400
O 	O 	0.23775 0.68627 0.06152 -0.38000
O 	O 	0.30818 0.63726 0.13781 -0.36900
O 	O 	0.24713 0.65901 0.11140 -0.39400
O 	O 	0.32486 0.68314 0.02769 -0.37800
O 	O 	0.25475 0.52703 0.10216 -0.37800
O 	O 	0.27490 0.51260 0.06123 -0.37300
O 	O 	0.37263 0.76612 0.05691 -0.38400
O 	O 	0.42977 0.68924 0.11407 -0.37700
O 	O 	0.38534 0.75678 0.11276 -0.37100
O 	O 	0.21110 0.58193 0.05427 -0.38500
O 	O 	0.33573 0.64997 0.07950 -0.71600
H 	H 	0.38096 0.67792 0.07447 0.15900
C 	C 	0.07146 0.10271 0.20160 0.32800
C 	C 	0.06433 0.15283 0.26988 0.30800
C 	C 	0.08530 0.93499 0.22626 0.32600
C 	C 	0.07273 0.97507 0.29491 0.30500
Ni	Ni	0.10054 0.05558 0.24901 1.12100
O 	O 	0.12149 0.98564 0.24026 -0.37900
O 	O 	0.09857 0.07115 0.21109 -0.37800
O 	O 	0.10540 0.03463 0.28573 -0.38000
O 	O 	0.10671 0.14237 0.25723 -0.37100
C 	C 	0.12461 0.19534 0.13347 -0.00300
C 	C 	0.08031 0.20875 0.12143 -0.03100
C 	C 	0.10218 0.26121 0.10490 -0.03100
C 	C 	0.16831 0.30012 0.10044 -0.00400
C 	C 	0.21106 0.28025 0.10917 -0.03200
C 	C 	0.18922 0.22790 0.12575 -0.03200
C 	C 	0.19305 0.36609 0.09337 0.05300
C 	C 	0.21551 0.42166 0.08756 -0.10400
C 	C 	0.10751 0.16155 0.15732 0.05300
C 	C 	0.09157 0.13304 0.17725 -0.10200
H 	H 	0.02981 0.18233 0.12664 0.04500
H 	H 	0.06845 0.27498 0.09753 0.04500
H 	H 	0.26208 0.30886 0.10509 0.04400
H 	H 	0.22351 0.21646 0.13433 0.04400
C 	C 	0.60130 0.85702 0.15508 -0.00100
C 	C 	0.60246 0.84625 0.18130 -0.03400
C 	C 	0.66016 0.85922 0.19312 -0.03200
C 	C 	0.65933 0.88616 0.14133 -0.03400
C 	C 	0.54136 0.82221 0.14145 0.04500
C 	C 	0.49125 0.79312 0.13003 -0.09300
H 	H 	0.55805 0.82408 0.19218 0.04400
H 	H 	0.66016 0.84888 0.21320 0.04200
H 	H 	0.65918 0.89493 0.12111 0.04400
C 	C 	0.15967 0.82077 0.20497 -0.00200
C 	C 	0.11952 0.75431 0.20262 -0.03200
C 	C 	0.14425 0.71631 0.19314 -0.03100
C 	C 	0.20914 0.74464 0.18581 -0.00400
C 	C 	0.25020 0.81038 0.18996 -0.03200
C 	C 	0.22549 0.84837 0.19944 -0.03200
C 	C 	0.22927 0.71069 0.16881 0.05300
C 	C 	0.24667 0.68280 0.15456 -0.10900
C 	C 	0.13299 0.86093 0.21220 0.05100
C 	C 	0.11094 0.89475 0.21824 -0.10000
H 	H 	0.06881 0.73237 0.20731 0.04500
H 	H 	0.11213 0.66553 0.19012 0.04500
H 	H 	0.30045 0.83275 0.18446 0.04400
H 	H 	0.25713 0.89952 0.20167 0.04500
C 	C 	0.56973 0.72122 0.32091 -0.00500
C 	C 	0.62450 0.71836 0.32834 -0.03100
C 	C 	0.63203 0.79752 0.28775 -0.03300
C 	C 	0.57280 0.75750 0.29944 -0.03100
C 	C 	0.51837 0.70385 0.33887 0.05500
C 	C 	0.47400 0.69145 0.35296 -0.10600
H 	H 	0.62235 0.68942 0.34457 0.04400
H 	H 	0.53033 0.75885 0.29318 0.04300
C 	C 	0.12604 0.33387 0.29652 -0.00000
C 	C 	0.19024 0.38165 0.29285 -0.03300
C 	C 	0.21270 0.44268 0.30326 -0.03200
C 	C 	0.17115 0.45614 0.31751 -0.00200
C 	C 	0.10590 0.40959 0.31971 -0.03200
C 	C 	0.08343 0.34853 0.30930 -0.03300
C 	C 	0.19783 0.51068 0.33428 0.04800
C 	C 	0.22082 0.55652 0.34821 -0.09800
C 	C 	0.10419 0.26959 0.28753 0.04600
C 	C 	0.08621 0.21591 0.27995 -0.09200
H 	H 	0.22321 0.37106 0.28257 0.04500
H 	H 	0.26316 0.47834 0.30139 0.04500
H 	H 	0.07334 0.41954 0.33063 0.04500
H 	H 	0.03340 0.31221 0.31180 0.04600
C 	C 	0.12810 0.93811 0.36348 -0.00100
C 	C 	0.19209 0.97663 0.37122 -0.03000
C 	C 	0.21883 0.95332 0.38911 -0.03300
C 	C 	0.18193 0.89107 0.39896 -0.00100
C 	C 	0.11549 0.85718 0.39428 -0.03200
C 	C 	0.08868 0.88040 0.37636 -0.03200
C 	C 	0.21395 0.85577 0.40593 0.04700
C 	C 	0.24094 0.82641 0.41174 -0.09400
C 	C 	0.10733 0.95109 0.33953 0.04700
C 	C 	0.09058 0.96253 0.31946 -0.09000
H 	H 	0.22249 0.02231 0.36195 0.04300
H 	H 	0.26982 0.98092 0.39324 0.04500
H 	H 	0.08594 0.80989 0.40246 0.04500
H 	H 	0.03858 0.85115 0.37110 0.04500
C 	C 	0.48722 0.99122 0.46616 0.00000
C 	C 	0.43777 0.00057 0.47586 -0.04000
C 	C 	0.44482 0.03014 0.49949 -0.02900
C 	C 	0.50125 0.05031 0.51363 -0.00800
C 	C 	0.55065 0.04099 0.50390 -0.03100
C 	C 	0.54378 0.01182 0.48024 -0.03700
C 	C 	0.47429 0.94821 0.44511 0.05100
C 	C 	0.46153 0.90657 0.42967 -0.11400
C 	C 	0.51419 0.09229 0.53505 0.05300
C 	C 	0.52929 0.13315 0.55104 -0.11300
H 	H 	0.39329 0.98363 0.46540 0.04800
H 	H 	0.40691 0.03838 0.50656 0.04300
H 	H 	0.59503 0.05764 0.51441 0.04300
H 	H 	0.58176 0.00370 0.47316 0.04400
C 	C 	0.13250 0.53880 0.47696 0.05100
C 	C 	0.18401 0.56527 0.46650 -0.09800
H 	H 	0.02300 0.52161 0.45627 0.04400
C 	C 	0.55580 0.48915 0.49492 -0.00400
C 	C 	0.59602 0.55541 0.49156 -0.03200
C 	C 	0.56955 0.59453 0.48580 -0.03200
C 	C 	0.50271 0.56764 0.48351 -0.00400
C 	C 	0.46262 0.50130 0.48649 -0.03200
C 	C 	0.48908 0.46220 0.49214 -0.03200
C 	C 	0.58125 0.45139 0.50598 0.05300
C 	C 	0.60092 0.42097 0.51740 -0.10700
C 	C 	0.47593 0.60631 0.47465 0.05300
C 	C 	0.45236 0.63599 0.46549 -0.10900
H 	H 	0.64758 0.57683 0.49402 0.04300
H 	H 	0.60100 0.64558 0.48302 0.04400
H 	H 	0.41100 0.47994 0.48425 0.04400
H 	H 	0.45754 0.41119 0.49503 0.04500
C 	C 	0.41012 0.31015 0.65695 -0.00500
C 	C 	0.35140 0.29404 0.64525 -0.03000
C 	C 	0.29341 0.25013 0.65691 -0.03300
C 	C 	0.29405 0.22346 0.68055 -0.00100
C 	C 	0.35212 0.24604 0.69369 -0.03300
C 	C 	0.41006 0.28994 0.68201 -0.03100
C 	C 	0.23572 0.17121 0.69078 0.04900
C 	C 	0.18672 0.12746 0.69926 -0.09800
C 	C 	0.46551 0.32724 0.64124 0.05500
C 	C 	0.51268 0.34136 0.62857 -0.10700
H 	H 	0.35083 0.31074 0.62613 0.04500
H 	H 	0.24838 0.23460 0.64702 0.04500
H 	H 	0.35275 0.22737 0.71241 0.04500
H 	H 	0.45517 0.30348 0.69152 0.04300
C 	C 	0.07008 0.58448 0.05243 0.04500
C 	C 	0.12732 0.60692 0.05534 -0.09300
H 	H 	0.00531 0.62051 0.02066 0.05300
C 	C 	0.45189 0.87847 0.97807 -0.00100
C 	C 	0.41230 0.89434 0.96375 -0.03300
C 	C 	0.43902 0.95273 0.95062 -0.03100
C 	C 	0.50543 0.99538 0.95172 -0.00200
C 	C 	0.54556 0.97685 0.96410 -0.02900
C 	C 	0.51883 0.91852 0.97729 -0.03400
C 	C 	0.42357 0.82825 0.99686 0.04700
C 	C 	0.39906 0.78828 0.01334 -0.09400
C 	C 	0.53040 0.06145 0.94456 0.05000
C 	C 	0.55141 0.11758 0.94000 -0.10100
H 	H 	0.36053 0.86326 0.96402 0.04600
H 	H 	0.40770 0.96637 0.94086 0.04500
H 	H 	0.59706 0.00925 0.96481 0.04300
H 	H 	0.54985 0.90628 0.98806 0.04400
C 	C 	0.58876 0.61065 0.04009 -0.00200
C 	C 	0.61390 0.64134 0.01674 -0.03200
C 	C 	0.65366 0.62578 0.00247 -0.03200
C 	C 	0.66821 0.57948 0.01155 -0.00200
C 	C 	0.65159 0.55694 0.03660 -0.03200
C 	C 	0.61132 0.57199 0.05078 -0.03200
C 	C 	0.53072 0.60702 0.04977 0.04700
C 	C 	0.48039 0.60274 0.05628 -0.09500
C 	C 	0.68083 0.54188 0.99362 0.04800
C 	C 	0.68474 0.50529 0.97907 -0.09600
H 	H 	0.59825 0.67294 0.00866 0.04500
H 	H 	0.66791 0.64503 0.98341 0.04400
H 	H 	0.66438 0.52263 0.04412 0.04400
H 	H 	0.59364 0.54951 0.06917 0.04400
C 	C 	0.34920 0.23150 0.87196 -0.00100
C 	C 	0.34771 0.26671 0.85089 -0.03300
C 	C 	0.29742 0.23839 0.83334 -0.03200
C 	C 	0.24829 0.17481 0.83682 -0.00300
C 	C 	0.24720 0.14133 0.85888 -0.03100
C 	C 	0.29751 0.16966 0.87643 -0.03300
C 	C 	0.20341 0.14169 0.81657 0.05200
C 	C 	0.16553 0.11333 0.79980 -0.10000
C 	C 	0.40837 0.25352 0.88585 0.04700
C 	C 	0.45834 0.27281 0.89723 -0.09500
H 	H 	0.38722 0.31472 0.84737 0.04400
H 	H 	0.29822 0.26490 0.81650 0.04400
H 	H 	0.20896 0.09243 0.86188 0.04600
H 	H 	0.29800 0.14221 0.89275 0.04500
C 	C 	0.72804 0.42592 0.88097 0.30700
O 	O 	0.73585 0.45436 0.95811 -0.37300
O 	O 	0.70062 0.25843 0.90726 -0.39600
O 	O 	0.67107 0.33842 0.98657 -0.36700
C 	C 	0.73179 0.40283 0.63317 0.31000
Ni	Ni	0.67107 0.29824 0.54825 1.11400
O 	O 	0.68029 0.34405 0.63596 -0.37400
C 	C 	0.71716 0.88369 0.17886 -0.00500
C 	C 	0.71699 0.89913 0.15314 -0.03200
C 	C 	0.68375 0.75830 0.31663 -0.03300
C 	C 	0.68806 0.80046 0.29725 -0.00300
H 	H 	0.72674 0.75891 0.32353 0.04400
H 	H 	0.63474 0.82851 0.27221 0.04200
H 	H 	0.71234 0.59784 0.84841 0.04500
O 	O 	0.74874 0.43214 0.61088 -0.39100
O 	O 	0.70246 0.25109 0.60703 -0.37800
H 	H 	0.72428 0.34438 0.58503 0.16700
C 	C 	0.72970 0.34747 0.98405 0.32800
Ni	Ni	0.75105 0.39695 0.93298 1.12200
O 	O 	0.75481 0.45075 0.90319 -0.38200
C 	C 	0.71774 0.23030 0.58621 0.30400
O 	O 	0.75464 0.45021 0.55536 -0.37400
O 	O 	0.69031 0.22744 0.56367 -0.36500
C 	C 	0.77655 0.89574 0.19083 0.05000
H 	H 	0.76117 0.91977 0.14212 0.04300
C 	C 	0.75011 0.84982 0.28863 0.04900
H 	H 	0.73073 0.04430 0.60723 0.04500
C 	C 	0.78651 0.48356 0.67090 0.04700
C 	C 	0.75994 0.44218 0.65516 -0.09600
H 	H 	0.74177 0.51886 0.71142 0.04400
C 	C 	0.74737 0.60792 0.83344 -0.03300
C 	C 	0.75243 0.51157 0.84502 0.04800
C 	C 	0.73930 0.46969 0.86047 -0.09500
H 	H 	0.76517 0.70412 0.82759 0.04400
C 	C 	0.76290 0.29492 0.90553 0.33300
O 	O 	0.74915 0.34064 0.96172 -0.38900
O 	O 	0.79048 0.35670 0.91044 -0.38200
C 	C 	0.79160 0.42534 0.54842 0.30800
O 	O 	0.76676 0.36372 0.54323 -0.37700
C 	C 	0.78014 0.07381 0.61334 -0.03200
C 	C 	0.75304 0.19691 0.58981 -0.09400
H 	H 	0.77592 0.00188 0.63904 0.04600
C 	C 	0.82334 0.53562 0.68817 -0.00200
C 	C 	0.79118 0.55253 0.70627 -0.03300
H 	H 	0.79379 0.62905 0.72852 0.04400
C 	C 	0.76646 0.56285 0.82742 -0.00200
C 	C 	0.77758 0.66826 0.82177 -0.03100
C 	C 	0.82696 0.90639 0.20029 -0.11000
C 	C 	0.80305 0.89036 0.28199 -0.10200
C 	C 	0.80554 0.04994 0.63155 -0.03200
C 	C 	0.78169 0.17016 0.59690 0.04600
C 	C 	0.82044 0.61522 0.71576 -0.03400
C 	C 	0.77792 0.38737 0.00214 -0.11200
C 	C 	0.79886 0.26918 0.89346 -0.10700
C 	C 	0.81568 0.13798 0.60537 -0.00200
C 	C 	0.82292 0.24247 0.88231 0.05400
C 	C 	0.88783 0.57928 0.68220 -0.03200
H 	H 	0.76547 0.11436 0.87935 0.04500
C 	C 	0.82653 0.68351 0.80386 -0.00600
C 	C 	0.85530 0.46653 0.53924 -0.09900
C 	C 	0.88207 0.66098 0.70728 -0.00200
C 	C 	0.81086 0.57593 0.80768 -0.03300
H 	H 	0.91363 0.56633 0.66864 0.04400
C 	C 	0.84731 0.20610 0.86940 -0.00500
C 	C 	0.80928 0.13911 0.86818 -0.03200
C 	C 	0.82176 0.42424 0.01543 0.05500
H 	H 	0.93364 0.28937 0.85582 0.04400
C 	C 	0.90394 0.23764 0.85496 -0.03200
C 	C 	0.86697 0.08988 0.64155 -0.00100
C 	C 	0.82593 0.10422 0.85156 -0.03200
C 	C 	0.86738 0.93517 0.27423 0.31400
C 	C 	0.91697 0.64196 0.69159 -0.03300
H 	H 	0.79530 0.05270 0.85018 0.04400
C 	C 	0.88898 0.92585 0.21139 0.32600
C 	C 	0.86637 0.74893 0.79571 0.05300
C 	C 	0.92069 0.20273 0.83839 -0.03200
H 	H 	0.82522 0.54104 0.80261 0.04400
C 	C 	0.88081 0.13616 0.83620 -0.00400
C 	C 	0.84089 0.63624 0.79591 -0.03200
C 	C 	0.90575 0.72827 0.71195 0.04500
C 	C 	0.88020 0.17488 0.61283 -0.03200
H 	H 	0.96367 0.22763 0.82676 0.04400
C 	C 	0.88629 0.07182 0.66471 0.04700
O 	O 	0.87789 0.98506 0.25957 -0.37100
O 	O 	0.89472 0.88987 0.22906 -0.37600
H 	H 	0.87270 0.40236 0.05740 0.04100
O 	O 	0.89865 0.86548 0.72647 -0.37200
O 	O 	0.89070 0.00599 0.76618 -0.38300
C 	C 	0.90015 0.80350 0.78872 -0.11100
C 	C 	0.90790 0.49120 0.52968 0.04900
O 	O 	0.88734 0.97588 0.71407 -0.37400
C 	C 	0.89500 0.10143 0.81741 0.05300
C 	C 	0.92450 0.78426 0.71611 -0.09400
C 	C 	0.90564 0.15107 0.63107 -0.03300
C 	C 	0.90190 0.05615 0.68409 -0.09400
H 	H 	0.96526 0.67657 0.68546 0.04400
O 	O 	0.91914 0.90811 0.77926 -0.38900
O 	O 	0.91350 0.92229 0.28006 -0.38900
Ni	Ni	0.90733 0.94342 0.74614 1.12100
O 	O 	0.93394 0.98509 0.20838 -0.38800
H 	H 	0.90871 0.22403 0.60630 0.04300
C 	C 	0.87731 0.47053 0.02939 -0.01200
H 	H 	0.01666 0.50564 0.55046 0.04400
C 	C 	0.90963 0.07527 0.80131 -0.10400
C 	C 	0.90081 0.45049 0.04977 -0.02400
H 	H 	0.87750 0.64717 0.78154 0.04300
C 	C 	0.94416 0.85014 0.72157 0.30100
C 	C 	0.94087 0.86770 0.77973 0.32400
C 	C 	0.91931 0.03712 0.70735 0.30600
C 	C 	0.93219 0.04923 0.78197 0.33000
H 	H 	0.89582 0.54941 0.00432 0.04100
C 	C 	0.96783 0.51096 0.51680 -0.00600
C 	C 	0.01840 0.51019 0.52992 -0.02600
H 	H 	0.95388 0.18168 0.63819 0.04300
C 	C 	0.91390 0.53324 0.01990 -0.02300
Ni	Ni	0.96236 0.04664 0.23882 1.11000
Ni	Ni	0.97219 0.91949 0.25325 1.11800
H 	H 	0.98175 0.47387 0.07405 0.04700
O 	O 	0.99766 0.99318 0.73992 -0.71500
O 	O 	0.00550 0.89432 0.71866 -0.36800
O 	O 	0.99411 0.07821 0.77736 -0.39600
O 	O 	0.99930 0.88474 0.77171 -0.37200
O 	O 	0.95586 0.08198 0.72393 -0.38300
H 	H 	0.99566 0.98830 0.72128 0.15800
C 	C 	0.96972 0.51480 0.49020 -0.03800
H 	H 	0.93014 0.51389 0.47984 0.04500
C 	C 	0.96262 0.49110 0.05923 -0.04600
