data_crystal

_cell_length_a 43.51376
_cell_length_b 41.14305
_cell_length_c 28.77412
_cell_angle_alpha 89.96499
_cell_angle_beta  89.94824
_cell_angle_gamma 89.99825

_symmetry_space_group_name_	'P 1'
_symmetry_space_group_name_H-M	'P 1'

loop_
_symmetry_equiv_pos_as_xyz
  x,y,z

loop_
_atom_site_label
_atom_site_type_symbol
_atom_site_fract_x
_atom_site_fract_y
_atom_site_fract_z
_atom_site_charge
C 	C 	0.53827 0.43040 0.04824 0.09900
N 	N 	0.51074 0.44108 0.03337 -0.17300
C 	C 	0.49068 0.41669 0.04080 0.09700
C 	C 	0.45900 0.41652 0.02167 -0.07300
C 	C 	0.44387 0.44769 0.01022 0.07700
C 	C 	0.44098 0.38608 0.02056 0.03800
C 	C 	0.44833 0.36155 0.98861 -0.05400
C 	C 	0.43074 0.33311 0.98686 -0.00300
C 	C 	0.40549 0.32917 0.01679 -0.02900
C 	C 	0.41598 0.38202 0.05077 -0.06100
N 	N 	0.44924 0.47534 0.03390 -0.12600
C 	C 	0.41976 0.45138 0.97937 -0.05100
C 	C 	0.42836 0.49679 0.01797 0.07900
C 	C 	0.42933 0.53180 0.02930 -0.07200
C 	C 	0.40095 0.55132 0.02649 0.03700
C 	C 	0.35181 0.56718 0.05918 -0.01200
C 	C 	0.39774 0.57507 0.99188 -0.05300
C 	C 	0.37167 0.59494 0.99101 -0.00500
C 	C 	0.34878 0.59136 0.02506 -0.02700
N 	N 	0.48610 0.53682 0.03732 -0.17200
C 	C 	0.50540 0.55925 0.05485 0.10000
C 	C 	0.48919 0.58305 0.07855 -0.06300
C 	C 	0.45852 0.57460 0.07529 -0.06200
C 	C 	0.53784 0.56228 0.03974 -0.07600
C 	C 	0.55283 0.59452 0.03814 0.04900
C 	C 	0.59262 0.63123 0.06508 -0.01300
C 	C 	0.58317 0.65463 0.03254 -0.01800
C 	C 	0.55808 0.64800 0.00333 -0.02100
C 	C 	0.54301 0.61802 0.00608 -0.07200
N 	N 	0.54933 0.50347 0.04981 -0.12600
C 	C 	0.58682 0.49776 0.99618 -0.05100
C 	C 	0.56799 0.48230 0.02790 0.08100
C 	C 	0.56755 0.44691 0.03647 -0.07700
C 	C 	0.59699 0.42934 0.04003 0.05100
C 	C 	0.61375 0.43041 0.08155 -0.06200
C 	C 	0.64386 0.41867 0.08292 -0.01300
C 	C 	0.65756 0.40598 0.04259 -0.01700
C 	C 	0.64005 0.40315 0.00175 -0.02100
C 	C 	0.60987 0.41478 0.00054 -0.07200
C 	C 	0.53592 0.39893 0.06518 -0.06300
C 	C 	0.50538 0.39018 0.06052 -0.06100
C 	C 	0.39828 0.35373 0.04887 -0.01100
C 	C 	0.41003 0.48307 0.98402 -0.05100
C 	C 	0.45756 0.54607 0.04974 0.09900
C 	C 	0.57927 0.53022 0.99836 -0.05100
C 	C 	0.55646 0.53276 0.03168 0.08000
C 	C 	0.57751 0.60134 0.06785 -0.06300
H 	H 	0.50778 0.45939 0.00858 0.09400
H 	H 	0.49113 0.52208 0.00874 0.09300
H 	H 	0.65685 0.42032 0.11494 0.04400
H 	H 	0.65023 0.39327 0.97043 0.05400
H 	H 	0.60381 0.44134 0.11234 0.05200
H 	H 	0.59695 0.41370 0.96841 0.05700
H 	H 	0.43644 0.31441 0.96181 0.04600
H 	H 	0.41021 0.40084 0.07562 0.05100
H 	H 	0.37906 0.35084 0.07247 0.04200
H 	H 	0.46755 0.36457 0.96506 0.05000
H 	H 	0.36960 0.61357 0.96457 0.04400
H 	H 	0.41561 0.57841 0.96607 0.05000
C 	C 	0.37774 0.54716 0.05977 -0.06100
H 	H 	0.33415 0.56401 0.08537 0.04300
H 	H 	0.61165 0.63620 0.08826 0.04200
H 	H 	0.58507 0.58342 0.09296 0.05100
H 	H 	0.52396 0.61292 0.98300 0.05800
H 	H 	0.55062 0.66580 0.97797 0.05300
H 	H 	0.55477 0.38188 0.06792 0.05100
H 	H 	0.49707 0.36540 0.05961 0.05100
H 	H 	0.40651 0.43184 0.96410 0.05200
H 	H 	0.38847 0.49279 0.97143 0.05200
H 	H 	0.49749 0.60734 0.08568 0.05100
H 	H 	0.43957 0.59140 0.07945 0.05100
H 	H 	0.59821 0.48611 0.96717 0.04900
H 	H 	0.58343 0.54769 0.97092 0.05100
H 	H 	0.38006 0.52881 0.08655 0.05000
Zn	Zn	0.32212 0.14781 0.00716 1.21900
C 	C 	0.32751 0.14634 0.10727 0.33000
O 	O 	0.27975 0.13573 0.99039 -0.43400
O 	O 	0.31454 0.17514 0.10962 -0.44600
O 	O 	0.25982 0.14678 0.06158 -0.47200
C 	C 	0.33260 0.21594 0.01963 0.29800
O 	O 	0.34569 0.18718 0.01951 -0.43800
O 	O 	0.30277 0.21852 0.02527 -0.49100
C 	C 	0.25814 0.13155 0.02168 0.28000
O 	O 	0.33322 0.15577 0.92733 -0.31500
Zn	Zn	0.27985 0.18885 0.06503 1.17200
O 	O 	0.32460 0.12853 0.06960 -0.44000
C 	C 	0.34829 0.12861 0.93067 0.28900
O 	O 	0.34812 0.11532 0.97144 -0.37900
C 	C 	0.48266 0.01667 0.47108 0.01200
C 	C 	0.50643 0.99294 0.46925 0.01200
C 	C 	0.46075 0.01562 0.50696 -0.05400
C 	C 	0.46201 0.99094 0.54070 0.01200
C 	C 	0.50779 0.96833 0.50313 -0.05400
C 	C 	0.48564 0.96706 0.53870 0.01200
H 	H 	0.52583 0.95024 0.50170 0.05200
H 	H 	0.44277 0.03378 0.50851 0.05200
C 	C 	0.48572 0.94181 0.57206 -0.01200
C 	C 	0.46486 0.94156 0.60929 0.01000
C 	C 	0.47525 0.92300 0.64802 -0.05500
C 	C 	0.50413 0.90888 0.64060 0.00900
S 	S 	0.51659 0.92051 0.58817 -0.00700
H 	H 	0.46392 0.92276 0.68148 0.04700
C 	C 	0.43956 0.98862 0.57605 -0.01300
C 	C 	0.44161 0.96514 0.61129 0.01000
C 	C 	0.42513 0.97374 0.65228 -0.05600
C 	C 	0.41039 0.00386 0.64857 0.00900
S 	S 	0.41889 0.01965 0.59660 -0.00500
H 	H 	0.42654 0.96041 0.68461 0.04700
C 	C 	0.50217 0.04088 0.39876 0.00900
C 	C 	0.48191 0.04128 0.43677 -0.01200
S 	S 	0.45051 0.06164 0.42064 -0.00700
C 	C 	0.46182 0.07188 0.36707 0.00900
C 	C 	0.49078 0.05802 0.35931 -0.05600
C 	C 	0.52863 0.99509 0.43350 -0.01300
C 	C 	0.52585 0.01778 0.39735 0.01000
C 	C 	0.54254 0.00895 0.35669 -0.05600
C 	C 	0.55830 0.97947 0.36170 0.00900
S 	S 	0.55024 0.96440 0.41419 -0.00500
H 	H 	0.54121 0.02197 0.32409 0.04700
H 	H 	0.50139 0.05719 0.32533 0.04600
Zn	Zn	0.65352 0.84030 0.99903 1.22400
C 	C 	0.64672 0.85357 0.09735 0.32800
O 	O 	0.69525 0.85415 0.98092 -0.43200
O 	O 	0.66009 0.82550 0.10568 -0.44700
O 	O 	0.71426 0.85195 0.05437 -0.47200
C 	C 	0.64744 0.77362 0.02583 0.29800
O 	O 	0.63253 0.80107 0.02024 -0.43900
O 	O 	0.67714 0.77389 0.03355 -0.49200
C 	C 	0.71587 0.86300 0.01171 0.26700
O 	O 	0.64514 0.82164 0.92219 -0.31700
Zn	Zn	0.69682 0.80943 0.06664 1.17200
O 	O 	0.64828 0.86654 0.05561 -0.44000
C 	C 	0.62768 0.84708 0.91827 0.28900
O 	O 	0.62566 0.86520 0.95488 -0.37900
Zn	Zn	0.18332 0.68331 0.00386 1.21800
C 	C 	0.17135 0.68175 0.10246 0.32700
O 	O 	0.15410 0.71933 0.01076 -0.43500
O 	O 	0.17855 0.71277 0.10407 -0.44700
O 	O 	0.19138 0.75720 0.02246 -0.48800
C 	C 	0.24643 0.67532 0.03059 0.28200
O 	O 	0.22741 0.67656 0.99523 -0.43900
O 	O 	0.24094 0.69249 0.06806 -0.47400
C 	C 	0.16317 0.74973 0.01038 0.28900
O 	O 	0.17962 0.68803 0.92197 -0.31700
Zn	Zn	0.21494 0.73082 0.06603 1.17100
O 	O 	0.17914 0.66420 0.06612 -0.44100
C 	C 	0.16324 0.66171 0.92464 0.28900
O 	O 	0.15934 0.65021 0.96610 -0.37900
C 	C 	0.01768 0.52900 0.54517 0.01200
C 	C 	0.99373 0.50541 0.54329 0.01200
C 	C 	0.03359 0.53758 0.50443 -0.05400
C 	C 	0.02582 0.52297 0.46186 0.01100
C 	C 	0.98634 0.49044 0.50092 -0.05400
C 	C 	0.00213 0.49910 0.46021 0.01200
H 	H 	0.96833 0.47229 0.49962 0.05200
H 	H 	0.05174 0.55557 0.50579 0.05200
C 	C 	0.99368 0.48622 0.41663 -0.01400
C 	C 	0.00953 0.49424 0.37603 0.01000
C 	C 	0.00486 0.47175 0.33936 -0.05600
C 	C 	0.98568 0.44580 0.35198 0.00800
S 	S 	0.97494 0.45148 0.40735 -0.00700
H 	H 	0.01462 0.47453 0.30495 0.04700
C 	C 	0.04196 0.53043 0.42047 -0.01200
C 	C 	0.03358 0.51663 0.37767 0.00900
C 	C 	0.04328 0.53520 0.33878 -0.05700
C 	C 	0.05824 0.56394 0.35152 0.00900
S 	S 	0.06014 0.56539 0.40947 -0.00700
H 	H 	0.03807 0.52889 0.30312 0.04700
C 	C 	0.00790 0.53605 0.62868 0.00900
C 	C 	0.02354 0.54479 0.58790 -0.01300
S 	S 	0.05673 0.56215 0.60329 -0.00500
C 	C 	0.05225 0.55944 0.66088 0.00900
C 	C 	0.02381 0.54479 0.66982 -0.05700
C 	C 	0.97883 0.49647 0.58499 -0.01200
C 	C 	0.98523 0.51213 0.62703 0.00900
C 	C 	0.96136 0.50904 0.66036 -0.05600
C 	C 	0.93603 0.49165 0.64360 0.00800
S 	S 	0.94388 0.47999 0.58916 -0.00700
H 	H 	0.96238 0.51936 0.69494 0.04600
H 	H 	0.01557 0.53936 0.70449 0.04700
Zn	Zn	0.84048 0.35401 0.99857 1.22400
C 	C 	0.78530 0.38881 0.02405 0.28100
O 	O 	0.85184 0.36874 0.93559 -0.45400
O 	O 	0.80343 0.41206 0.03913 -0.43200
O 	O 	0.82507 0.41591 0.94103 -0.49000
C 	C 	0.86950 0.38861 0.07240 0.33500
O 	O 	0.84965 0.36555 0.06288 -0.45400
O 	O 	0.87372 0.41256 0.04298 -0.51200
C 	C 	0.83926 0.39417 0.91559 0.32300
O 	O 	0.88575 0.32230 0.00051 -0.31500
Zn	Zn	0.84122 0.42704 0.00161 1.17000
O 	O 	0.79647 0.36508 0.99850 -0.40500
C 	C 	0.86739 0.29774 0.99519 0.26400
O 	O 	0.83846 0.30472 0.99219 -0.35900
C 	C 	0.98638 0.92397 0.92329 0.09900
N 	N 	0.96664 0.94522 0.90370 -0.17500
C 	C 	0.93913 0.94017 0.92402 0.10000
C 	C 	0.91338 0.96372 0.92180 -0.07500
C 	C 	0.91950 0.99858 0.91380 0.08800
C 	C 	0.88175 0.95266 0.93213 0.05200
C 	C 	0.86830 0.92797 0.90542 -0.06500
C 	C 	0.83925 0.91597 0.91708 -0.00800
C 	C 	0.82344 0.92847 0.95572 -0.02600
C 	C 	0.86565 0.96578 0.96998 -0.06800
N 	N 	0.93845 0.01575 0.94153 -0.12800
C 	C 	0.89945 0.01900 0.89041 -0.05900
C 	C 	0.93033 0.04712 0.93579 0.09000
C 	C 	0.94916 0.07448 0.95308 -0.07300
C 	C 	0.93572 0.10736 0.95754 0.04600
C 	C 	0.89805 0.14376 0.99165 -0.00300
C 	C 	0.94926 0.13374 0.93439 -0.06100
C 	C 	0.93750 0.16507 0.94028 -0.01100
C 	C 	0.91196 0.17029 0.96920 -0.02000
N 	N 	0.00074 0.05136 0.93755 -0.17200
C 	C 	0.02945 0.05737 0.95251 0.09600
C 	C 	0.02886 0.07811 0.99040 -0.05100
C 	C 	0.99831 0.08593 0.99775 -0.05400
C 	C 	0.05630 0.03766 0.93832 -0.07200
C 	C 	0.08766 0.04885 0.94946 0.04600
C 	C 	0.13283 0.04665 0.99872 -0.00200
C 	C 	0.14636 0.07179 0.97279 -0.02400
C 	C 	0.13052 0.08512 0.93479 -0.01000
C 	C 	0.10121 0.07378 0.92334 -0.06300
N 	N 	0.02800 0.98621 0.92517 -0.12800
C 	C 	0.06256 0.95929 0.88163 -0.06000
C 	C 	0.03451 0.95772 0.90442 0.08900
C 	C 	0.02032 0.92695 0.91993 -0.07500
C 	C 	0.04013 0.89975 0.93520 0.05100
C 	C 	0.06133 0.90439 0.97127 -0.06800
C 	C 	0.08118 0.87928 0.98416 0.00200
C 	C 	0.07998 0.84921 0.96113 -0.02500
C 	C 	0.05831 0.84438 0.92561 -0.00900
C 	C 	0.03847 0.86957 0.91273 -0.06500
C 	C 	0.97142 0.90523 0.95632 -0.06100
C 	C 	0.94119 0.91560 0.95678 -0.06100
C 	C 	0.83663 0.95374 0.98174 0.00400
C 	C 	0.90677 0.05012 0.90399 -0.06100
C 	C 	0.98181 0.06891 0.96459 0.10100
C 	C 	0.07345 0.99037 0.88821 -0.06100
C 	C 	0.05154 0.00617 0.91464 0.09000
C 	C 	0.10364 0.03512 0.98692 -0.05400
H 	H 	0.97281 0.96591 0.88480 0.09700
H 	H 	0.99514 0.04214 0.90479 0.09600
H 	H 	0.09747 0.88318 0.01206 0.03200
H 	H 	0.05721 0.82137 0.90743 0.04400
H 	H 	0.06257 0.92755 0.98908 0.05500
H 	H 	0.02217 0.86579 0.88482 0.05100
H 	H 	0.82939 0.89639 0.89682 0.04200
H 	H 	0.87586 0.98487 0.99079 0.05600
H 	H 	0.82453 0.96384 0.01132 0.03300
H 	H 	0.88053 0.91781 0.87601 0.05100
H 	H 	0.94820 0.18526 0.92230 0.04600
H 	H 	0.96901 0.12999 0.91207 0.05000
C 	C 	0.90994 0.11244 0.98592 -0.05300
H 	H 	0.87841 0.14748 0.01420 0.03700
H 	H 	0.14492 0.03606 0.02793 0.03400
H 	H 	0.09330 0.01578 0.00717 0.04200
H 	H 	0.08897 0.08449 0.89435 0.05000
H 	H 	0.14066 0.10465 0.91470 0.04300
H 	H 	0.98263 0.89321 0.98518 0.05300
H 	H 	0.92575 0.91274 0.98602 0.05300
H 	H 	0.87748 0.01177 0.87611 0.05100
H 	H 	0.89230 0.07128 0.89950 0.05200
H 	H 	0.04838 0.09115 0.00437 0.04200
H 	H 	0.99023 0.10707 0.01651 0.04300
H 	H 	0.07693 0.93853 0.87367 0.05100
H 	H 	0.09740 0.99730 0.88578 0.05200
H 	H 	0.89937 0.09221 0.00399 0.04200
C 	C 	0.87891 0.26454 0.98930 0.05200
N 	N 	0.85902 0.23934 0.98463 -0.05700
N 	N 	0.86955 0.20921 0.97849 -0.08100
C 	C 	0.90027 0.20349 0.97668 0.11600
N 	N 	0.92014 0.22871 0.98149 -0.08200
N 	N 	0.90961 0.25879 0.98778 -0.05800
C 	C 	0.86596 0.42576 0.78150 0.06800
N 	N 	0.88314 0.40344 0.80489 -0.11700
C 	C 	0.87382 0.39108 0.84645 0.07000
C 	C 	0.84607 0.40144 0.86646 -0.12100
C 	C 	0.82693 0.42228 0.84108 0.03800
C 	C 	0.83677 0.43432 0.79827 -0.08500
H 	H 	0.88870 0.37443 0.86496 0.03500
H 	H 	0.80498 0.42991 0.85510 0.03100
H 	H 	0.82229 0.45097 0.77903 0.05200
C 	C 	0.91412 0.47481 0.67426 -0.01100
C 	C 	0.89572 0.49274 0.70473 -0.02000
C 	C 	0.87833 0.47673 0.73834 -0.05700
C 	C 	0.87937 0.44266 0.74114 0.05100
N 	N 	0.89670 0.42556 0.71015 -0.10500
C 	C 	0.91377 0.44076 0.67694 0.02300
H 	H 	0.89572 0.51906 0.70339 0.03600
H 	H 	0.86532 0.49073 0.76342 0.04200
H 	H 	0.92803 0.42641 0.65392 0.03700
C 	C 	0.93396 0.40259 0.24357 0.05100
N 	N 	0.96467 0.39679 0.24774 -0.10600
C 	C 	0.98123 0.40881 0.28398 0.02200
C 	C 	0.96693 0.42804 0.31785 -0.01100
C 	C 	0.93517 0.43326 0.31516 -0.01800
C 	C 	0.91860 0.42050 0.27800 -0.05700
H 	H 	0.00574 0.40439 0.28558 0.03500
H 	H 	0.92363 0.44844 0.34049 0.03800
H 	H 	0.89435 0.42593 0.27465 0.04500
C 	C 	0.88709 0.38778 0.11604 -0.12100
C 	C 	0.87326 0.37743 0.15744 0.04300
C 	C 	0.88897 0.38089 0.19940 -0.08500
C 	C 	0.91840 0.39485 0.19955 0.06900
N 	N 	0.93211 0.40304 0.15861 -0.11900
C 	C 	0.91722 0.39984 0.11733 0.07500
H 	H 	0.85009 0.36779 0.15732 0.03500
H 	H 	0.87813 0.37346 0.23161 0.05500
H 	H 	0.92862 0.40721 0.08556 0.02500
C 	C 	0.14166 0.77550 0.99690 0.04100
N 	N 	0.11246 0.76805 0.98423 -0.05700
N 	N 	0.09279 0.79154 0.97267 -0.08400
C 	C 	0.10178 0.82315 0.97351 0.11500
N 	N 	0.13104 0.83056 0.98604 -0.08500
N 	N 	0.15069 0.80708 0.99758 -0.06300
C 	C 	0.09969 0.61117 0.76619 0.05400
N 	N 	0.11538 0.59255 0.73501 -0.10600
C 	C 	0.10069 0.57706 0.69956 0.02400
C 	C 	0.06877 0.57996 0.69455 -0.01100
C 	C 	0.05257 0.60052 0.72463 -0.01900
C 	C 	0.06804 0.61622 0.76052 -0.05700
H 	H 	0.11368 0.56161 0.67626 0.03700
H 	H 	0.02800 0.60383 0.72075 0.03700
H 	H 	0.05547 0.63163 0.78442 0.04700
C 	C 	0.14675 0.64835 0.88415 -0.09300
C 	C 	0.12041 0.62929 0.89048 0.03300
C 	C 	0.10483 0.61716 0.85196 -0.07800
C 	C 	0.11567 0.62419 0.80717 0.06800
N 	N 	0.14162 0.64232 0.80161 -0.11400
C 	C 	0.15711 0.65461 0.83879 0.06800
H 	H 	0.11190 0.62407 0.92508 0.04100
H 	H 	0.08456 0.60224 0.85683 0.05400
H 	H 	0.17761 0.66900 0.83310 0.03900
C 	C 	0.11118 0.61784 0.25424 0.05100
N 	N 	0.11316 0.58481 0.25599 -0.10600
C 	C 	0.09739 0.56722 0.28820 0.02300
C 	C 	0.07817 0.58292 0.32027 -0.01100
C 	C 	0.07649 0.61687 0.31993 -0.01900
C 	C 	0.09289 0.63445 0.28668 -0.05700
H 	H 	0.09945 0.54099 0.28843 0.03500
H 	H 	0.06174 0.62951 0.34430 0.03800
H 	H 	0.09063 0.66065 0.28516 0.04500
C 	C 	0.15523 0.66636 0.14189 -0.11400
C 	C 	0.15782 0.67915 0.18684 0.04100
C 	C 	0.14325 0.66359 0.22388 -0.08400
C 	C 	0.12591 0.63542 0.21560 0.06900
N 	N 	0.12370 0.62335 0.17166 -0.11700
C 	C 	0.13771 0.63814 0.13503 0.07500
H 	H 	0.17150 0.70068 0.19322 0.02400
H 	H 	0.14582 0.67301 0.25881 0.05200
H 	H 	0.13519 0.62795 0.10056 0.03300
C 	C 	0.74233 0.88270 0.99739 0.04800
N 	N 	0.74768 0.88863 0.95167 -0.06100
N 	N 	0.77321 0.90396 0.93839 -0.08500
C 	C 	0.79406 0.91390 0.97050 0.12100
N 	N 	0.78837 0.90856 0.01628 -0.09300
N 	N 	0.76291 0.89313 0.02952 -0.07100
C 	C 	0.57784 0.86979 0.79543 0.06800
N 	N 	0.56646 0.87764 0.83808 -0.11400
C 	C 	0.58213 0.87054 0.87773 0.07000
C 	C 	0.61044 0.85431 0.87547 -0.09400
C 	C 	0.62225 0.84551 0.83197 0.03400
C 	C 	0.60597 0.85335 0.79176 -0.07800
H 	H 	0.57244 0.87728 0.91103 0.03900
H 	H 	0.64409 0.83301 0.82929 0.03800
H 	H 	0.61505 0.84664 0.75803 0.05400
C 	C 	0.52431 0.89753 0.67860 -0.01100
C 	C 	0.55481 0.90826 0.68199 -0.01700
C 	C 	0.57283 0.89841 0.71949 -0.05600
C 	C 	0.56016 0.87806 0.75359 0.05300
N 	N 	0.53053 0.86778 0.74963 -0.10600
C 	C 	0.51265 0.87671 0.71300 0.02300
H 	H 	0.56430 0.92478 0.65644 0.04000
H 	H 	0.59622 0.90716 0.72269 0.04900
H 	H 	0.48926 0.86788 0.71083 0.03500
C 	C 	0.59103 0.92340 0.24791 0.05200
N 	N 	0.60796 0.92650 0.28748 -0.10700
C 	C 	0.59758 0.94401 0.32442 0.02300
C 	C 	0.56887 0.95938 0.32248 -0.01100
C 	C 	0.55068 0.95563 0.28273 -0.01900
C 	C 	0.56170 0.93749 0.24535 -0.05700
H 	H 	0.61182 0.94635 0.35507 0.03600
H 	H 	0.52806 0.96657 0.28087 0.03800
H 	H 	0.54755 0.93430 0.21473 0.04700
C 	C 	0.63110 0.87128 0.13545 -0.11300
C 	C 	0.61608 0.90081 0.12672 0.04000
C 	C 	0.60246 0.91777 0.16323 -0.08200
C 	C 	0.60360 0.90494 0.20838 0.06800
N 	N 	0.61822 0.87618 0.21624 -0.11800
C 	C 	0.63168 0.85917 0.18112 0.07200
H 	H 	0.61521 0.91078 0.09190 0.03800
H 	H 	0.59160 0.94102 0.15666 0.05400
H 	H 	0.64309 0.83643 0.18884 0.02800
C 	C 	0.17658 0.08480 0.98621 0.12100
N 	N 	0.18232 0.09283 0.03113 -0.09300
N 	N 	0.20878 0.10697 0.04272 -0.06400
C 	C 	0.23034 0.11323 0.00978 0.02200
N 	N 	0.22487 0.10453 0.96503 -0.05400
N 	N 	0.19832 0.09063 0.95338 -0.08500
C 	C 	0.37690 0.07668 0.81026 0.06800
N 	N 	0.36609 0.10765 0.80662 -0.11400
C 	C 	0.35750 0.12497 0.84483 0.06800
C 	C 	0.35980 0.11109 0.88932 -0.09200
C 	C 	0.37206 0.07974 0.89375 0.03300
C 	C 	0.38064 0.06249 0.85419 -0.07700
H 	H 	0.34861 0.14936 0.84055 0.04100
H 	H 	0.37457 0.06859 0.92764 0.04300
H 	H 	0.38996 0.03818 0.85756 0.05500
C 	C 	0.40040 0.02313 0.68906 -0.01100
C 	C 	0.37984 0.00974 0.72120 -0.01800
C 	C 	0.37173 0.02731 0.76071 -0.05700
C 	C 	0.38443 0.05822 0.76799 0.05400
N 	N 	0.40390 0.07121 0.73586 -0.10600
C 	C 	0.41220 0.05441 0.69704 0.02400
H 	H 	0.37027 0.98574 0.71564 0.03800
H 	H 	0.35576 0.01700 0.78557 0.04900
H 	H 	0.42842 0.06510 0.67295 0.03700
C 	C 	0.38185 0.11243 0.22002 0.07000
N 	N 	0.39029 0.10634 0.17526 -0.11700
C 	C 	0.37283 0.11648 0.13879 0.07700
C 	C 	0.34576 0.13416 0.14667 -0.11500
C 	C 	0.33680 0.14083 0.19242 0.04300
C 	C 	0.35484 0.12987 0.22927 -0.08400
H 	H 	0.38030 0.11133 0.10365 0.03100
H 	H 	0.31596 0.15437 0.19941 0.02400
H 	H 	0.34811 0.13520 0.26471 0.05300
C 	C 	0.44071 0.08184 0.32942 -0.01100
C 	C 	0.41003 0.07142 0.32895 -0.01800
C 	C 	0.39052 0.08157 0.29338 -0.05700
C 	C 	0.40189 0.10192 0.25826 0.05200
N 	N 	0.43188 0.11136 0.25882 -0.10600
C 	C 	0.45126 0.10203 0.29348 0.02300
H 	H 	0.40140 0.05520 0.35557 0.03900
H 	H 	0.36685 0.07343 0.29279 0.04700
H 	H 	0.47483 0.11046 0.29323 0.03500
C 	C 	0.35142 0.24537 0.01539 0.03000
N 	N 	0.38241 0.24314 0.01078 -0.05700
N 	N 	0.39965 0.26993 0.01011 -0.08500
C 	C 	0.38637 0.29968 0.01422 0.11400
N 	N 	0.35535 0.30188 0.01816 -0.08700
N 	N 	0.33813 0.27512 0.01870 -0.06500
C 	C 	0.27343 0.65405 0.02879 0.02500
N 	N 	0.28977 0.64791 0.06797 -0.06200
N 	N 	0.31384 0.62792 0.06674 -0.08500
C 	C 	0.32238 0.61368 0.02620 0.10600
N 	N 	0.30620 0.62001 0.98689 -0.07800
N 	N 	0.28196 0.63981 0.98821 -0.05400
C 	C 	0.75217 0.39068 0.03301 0.03700
N 	N 	0.73242 0.37086 0.00999 -0.05900
N 	N 	0.70216 0.37495 0.01431 -0.08400
C 	C 	0.69081 0.39893 0.04187 0.11000
N 	N 	0.71059 0.41815 0.06582 -0.08600
N 	N 	0.74082 0.41411 0.06140 -0.06500
C 	C 	0.60003 0.68559 0.02836 0.11000
N 	N 	0.58466 0.71387 0.02097 -0.08500
N 	N 	0.59985 0.74199 0.01937 -0.05800
C 	C 	0.63083 0.74261 0.02504 0.03000
N 	N 	0.64621 0.71431 0.03183 -0.06600
N 	N 	0.63104 0.68622 0.03346 -0.08700
