data_crystal

_cell_length_a 26.08375
_cell_length_b 26.47109
_cell_length_c 33.37882
_cell_angle_alpha 95.49822
_cell_angle_beta  95.49551
_cell_angle_gamma 125.82968

_symmetry_space_group_name_	'P 1'
_symmetry_space_group_name_H-M	'P 1'

loop_
_symmetry_equiv_pos_as_xyz
  x,y,z

loop_
_atom_site_label
_atom_site_type_symbol
_atom_site_fract_x
_atom_site_fract_y
_atom_site_fract_z
_atom_site_charge
C 	C 	0.96809 0.04485 0.00199 0.26800
N 	N 	0.03118 0.08134 0.99866 -0.10000
C 	C 	0.06206 0.05458 0.99432 0.28300
N 	N 	0.02971 0.99139 0.99272 -0.09800
C 	C 	0.96708 0.95493 0.99670 0.27600
N 	N 	0.93628 0.98176 0.00148 -0.09600
C 	C 	0.92200 0.97386 0.44910 0.30100
N 	N 	0.98708 0.00912 0.45347 -0.12600
C 	C 	0.01662 0.98064 0.45496 0.31800
N 	N 	0.98091 0.91679 0.45190 -0.11600
C 	C 	0.91596 0.88140 0.44792 0.28900
N 	N 	0.88641 0.90995 0.44663 -0.10900
Cu	Cu	0.64183 0.26309 0.01216 0.94000
Cu	Cu	0.68737 0.25092 0.92547 0.90400
Cu	Cu	0.68714 0.36070 0.95551 0.91300
Cu	Cu	0.65108 0.38688 0.03409 0.93000
C 	C 	0.66910 0.32254 0.09586 0.26200
O 	O 	0.54910 0.23058 0.01064 -0.31100
C 	C 	0.66319 0.30920 0.86716 0.26500
O 	O 	0.69889 0.36162 0.01314 -0.63600
O 	O 	0.63491 0.26664 0.95295 -0.62800
O 	O 	0.67600 0.21255 0.01268 -0.32000
O 	O 	0.74732 0.26917 0.97197 -0.38900
O 	O 	0.64108 0.34853 0.08416 -0.30200
O 	O 	0.74108 0.45247 0.96286 -0.32000
C 	C 	0.73646 0.48928 0.98954 0.39400
C 	C 	0.52737 0.25963 0.99467 0.39100
O 	O 	0.56808 0.31666 0.98726 -0.34300
O 	O 	0.68897 0.46513 0.01030 -0.31900
O 	O 	0.66267 0.27648 0.07082 -0.31000
C 	C 	0.72881 0.23142 0.99873 0.40400
O 	O 	0.69084 0.35986 0.89641 -0.31100
O 	O 	0.64932 0.25532 0.87555 -0.36100
H 	H 	0.74452 0.38716 0.02703 0.20400
H 	H 	0.59037 0.24318 0.93751 0.21000
Cu	Cu	0.72250 0.31400 0.44627 0.93900
Cu	Cu	0.73543 0.27977 0.53672 0.90300
Cu	Cu	0.62328 0.27609 0.50184 0.91300
Cu	Cu	0.59231 0.29548 0.41644 0.92900
C 	C 	0.68144 0.30468 0.36219 0.26300
O 	O 	0.75510 0.40416 0.44292 -0.32300
C 	C 	0.67563 0.30911 0.59132 0.26600
O 	O 	0.62243 0.25680 0.44478 -0.63200
O 	O 	0.71859 0.32725 0.50480 -0.63200
O 	O 	0.77348 0.27989 0.44968 -0.31600
O 	O 	0.71678 0.21575 0.49365 -0.38800
O 	O 	0.62431 0.29076 0.36491 -0.31100
O 	O 	0.53034 0.22183 0.49490 -0.32900
C 	C 	0.49132 0.22064 0.46584 0.40700
C 	C 	0.72120 0.42478 0.45056 0.38800
O 	O 	0.66278 0.38563 0.45757 -0.34300
O 	O 	0.51362 0.26193 0.44093 -0.32500
O 	O 	0.70963 0.28985 0.38838 -0.30200
C 	C 	0.75404 0.22992 0.46639 0.40100
O 	O 	0.62452 0.28073 0.56162 -0.31200
O 	O 	0.73058 0.32223 0.58394 -0.36200
H 	H 	0.59870 0.21091 0.43405 0.21400
H 	H 	0.74173 0.37221 0.51788 0.21300
C 	C 	0.64394 0.27774 0.68853 0.13400
C 	C 	0.60883 0.24913 0.71913 -0.06400
C 	C 	0.64109 0.27653 0.75999 0.03300
C 	C 	0.70032 0.33454 0.77027 0.13300
C 	C 	0.73275 0.36631 0.73958 -0.06300
C 	C 	0.70515 0.33354 0.69888 0.03200
O 	O 	0.61600 0.26293 0.64755 -0.14600
C 	C 	0.66749 0.31488 0.63407 0.07400
C 	C 	0.71938 0.35892 0.66517 -0.04300
O 	O 	0.71575 0.36396 0.81083 -0.14500
C 	C 	0.66021 0.31667 0.82416 0.07500
C 	C 	0.61399 0.26603 0.79323 -0.04300
H 	H 	0.55854 0.20857 0.71147 0.11200
H 	H 	0.77645 0.41457 0.74699 0.11200
H 	H 	0.76749 0.39586 0.66096 0.09600
H 	H 	0.57370 0.22011 0.79772 0.09600
C 	C 	0.73787 0.32284 0.26840 0.13500
C 	C 	0.73448 0.29688 0.22865 -0.06100
C 	C 	0.73611 0.32854 0.19677 0.03800
C 	C 	0.73049 0.37733 0.20263 0.14100
C 	C 	0.72784 0.39944 0.24168 -0.06700
C 	C 	0.73679 0.37455 0.27464 0.04700
O 	O 	0.71957 0.28777 0.29963 -0.14100
C 	C 	0.70610 0.32271 0.32440 0.08100
C 	C 	0.71599 0.37413 0.30990 -0.05000
O 	O 	0.70557 0.38518 0.16709 -0.14800
C 	C 	0.69596 0.33590 0.13958 0.07600
C 	C 	0.71391 0.30185 0.15682 -0.04200
H 	H 	0.72731 0.25201 0.22251 0.11500
H 	H 	0.71562 0.43205 0.24580 0.12000
H 	H 	0.69436 0.39716 0.31862 0.10300
H 	H 	0.69629 0.25404 0.14396 0.10500
C 	C 	0.81414 0.71920 0.47562 0.25500
C 	C 	0.82256 0.68417 0.44629 -0.00100
C 	C 	0.85665 0.71263 0.41531 0.25300
C 	C 	0.88418 0.77634 0.41452 0.30600
C 	C 	0.87796 0.81221 0.44477 -0.13900
C 	C 	0.84168 0.78302 0.47484 0.30800
C 	C 	0.79622 0.61783 0.44819 0.00900
F 	F 	0.86390 0.67871 0.38635 -0.32500
F 	F 	0.83533 0.81715 0.50425 -0.32200
C 	C 	0.73398 0.56815 0.42701 0.23600
C 	C 	0.70973 0.50513 0.42757 0.31700
C 	C 	0.74750 0.49125 0.44949 -0.20800
C 	C 	0.80989 0.54104 0.47066 0.32200
C 	C 	0.83412 0.60412 0.47002 0.23600
F 	F 	0.69724 0.58099 0.40555 -0.32100
F 	F 	0.84655 0.52835 0.49239 -0.36300
F 	F 	0.64999 0.45745 0.40613 -0.37900
F 	F 	0.89446 0.65195 0.49054 -0.32000
F 	F 	0.78035 0.69172 0.50532 -0.31700
F 	F 	0.91789 0.80366 0.38475 -0.33200
C 	C 	0.83284 0.04013 0.47726 0.25200
C 	C 	0.84096 0.07512 0.44617 -0.00300
C 	C 	0.87227 0.07343 0.41467 0.25400
C 	C 	0.89711 0.03876 0.41497 0.30900
C 	C 	0.89026 0.00493 0.44656 -0.15000
C 	C 	0.85709 0.00489 0.47731 0.30000
C 	C 	0.81872 0.11529 0.44745 0.00700
F 	F 	0.87919 0.10598 0.38402 -0.31400
F 	F 	0.85029 0.97247 0.50802 -0.32000
C 	C 	0.86361 0.18165 0.45800 0.23600
C 	C 	0.84247 0.21949 0.46205 0.31900
C 	C 	0.77627 0.19124 0.45605 -0.20800
C 	C 	0.73143 0.12502 0.44418 0.32200
C 	C 	0.75258 0.08724 0.43971 0.23700
F 	F 	0.92767 0.20928 0.46545 -0.31900
F 	F 	0.66734 0.09728 0.43739 -0.36000
F 	F 	0.88627 0.28340 0.47356 -0.35900
F 	F 	0.70883 0.02329 0.42846 -0.31700
F 	F 	0.80275 0.04150 0.50790 -0.32400
F 	F 	0.92822 0.03830 0.38473 -0.32300
C 	C 	0.18646 0.09835 0.43826 0.25400
C 	C 	0.22057 0.08487 0.46457 -0.00100
C 	C 	0.18812 0.03930 0.48911 0.25400
C 	C 	0.12188 0.00678 0.48698 0.30300
C 	C 	0.08724 0.01877 0.45970 -0.15100
C 	C 	0.12001 0.06517 0.43561 0.31200
C 	C 	0.29003 0.11754 0.46578 0.00900
F 	F 	0.22075 0.02611 0.51474 -0.31800
F 	F 	0.08717 0.07676 0.40877 -0.31700
C 	C 	0.33509 0.16323 0.50016 0.23800
C 	C 	0.40099 0.19527 0.50086 0.32700
C 	C 	0.42231 0.18236 0.46699 -0.20100
C 	C 	0.37726 0.13611 0.43286 0.32400
C 	C 	0.31134 0.10347 0.43238 0.24000
F 	F 	0.31497 0.17730 0.53255 -0.31600
F 	F 	0.39744 0.12304 0.40010 -0.36100
F 	F 	0.44423 0.24032 0.53387 -0.35400
F 	F 	0.26810 0.05843 0.39936 -0.31300
F 	F 	0.21768 0.14313 0.41491 -0.31100
F 	F 	0.09132 0.96375 0.51151 -0.32400
C 	C 	0.82777 0.66433 0.02915 0.23900
C 	C 	0.84188 0.68873 0.99295 0.01000
C 	C 	0.82566 0.64809 0.95597 0.23900
C 	C 	0.79316 0.58305 0.95488 0.32300
C 	C 	0.77779 0.55836 0.99104 -0.19400
C 	C 	0.79691 0.59972 0.02833 0.32000
C 	C 	0.87374 0.75689 0.99387 -0.00300
F 	F 	0.84070 0.67158 0.92100 -0.31800
F 	F 	0.78483 0.57702 0.06376 -0.36200
C 	C 	0.93713 0.80197 0.01524 0.25700
C 	C 	0.96653 0.86664 0.01766 0.29300
C 	C 	0.93361 0.88692 0.99740 -0.13000
C 	C 	0.87007 0.84170 0.97595 0.30400
C 	C 	0.84006 0.77699 0.97458 0.25600
F 	F 	0.97018 0.78299 0.03381 -0.31500
F 	F 	0.83798 0.86035 0.95562 -0.32900
F 	F 	0.02687 0.90970 0.04000 -0.30700
F 	F 	0.77825 0.73375 0.95451 -0.31300
F 	F 	0.84330 0.70325 0.06506 -0.31100
F 	F 	0.77466 0.54384 0.91852 -0.35200
C 	C 	0.86424 0.21882 0.02445 0.23400
C 	C 	0.83121 0.15287 0.01488 0.00800
C 	C 	0.76368 0.11263 0.00473 0.23300
C 	C 	0.72966 0.13827 0.00204 0.31800
C 	C 	0.76301 0.20440 0.00915 -0.21500
C 	C 	0.83030 0.24450 0.02147 0.32200
C 	C 	0.86746 0.12634 0.01216 -0.00600
F 	F 	0.73126 0.04875 0.99587 -0.31600
F 	F 	0.86287 0.30842 0.02966 -0.36300
C 	C 	0.87031 0.09429 0.04245 0.25600
C 	C 	0.90336 0.06778 0.03922 0.30400
C 	C 	0.93413 0.07348 0.00577 -0.13800
C 	C 	0.93170 0.10601 0.97567 0.30500
C 	C 	0.89832 0.13213 0.97878 0.25400
F 	F 	0.84110 0.08895 0.07501 -0.31600
F 	F 	0.96056 0.11111 0.94295 -0.32900
F 	F 	0.90619 0.03724 0.06881 -0.33100
F 	F 	0.89525 0.16246 0.94912 -0.32700
F 	F 	0.92941 0.25803 0.03548 -0.32000
F 	F 	0.66458 0.09896 0.99034 -0.35800
C 	C 	0.34595 0.14254 0.97367 0.23800
C 	C 	0.32884 0.18117 0.98857 0.01100
C 	C 	0.37676 0.24594 0.00393 0.23700
C 	C 	0.44155 0.27172 0.00545 0.32100
C 	C 	0.45896 0.23288 0.99133 -0.20300
C 	C 	0.41081 0.16829 0.97504 0.32300
C 	C 	0.26138 0.15284 0.99127 0.00000
F 	F 	0.36053 0.28353 0.01845 -0.31700
F 	F 	0.42686 0.13060 0.96043 -0.36000
C 	C 	0.23726 0.12667 0.02558 0.25200
C 	C 	0.17266 0.09760 0.02760 0.30700
C 	C 	0.13163 0.09443 0.99529 -0.13800
C 	C 	0.15634 0.12285 0.96170 0.30700
C 	C 	0.22107 0.15190 0.95966 0.25500
F 	F 	0.27633 0.12864 0.05668 -0.31800
F 	F 	0.11707 0.12022 0.93039 -0.32300
F 	F 	0.14941 0.07121 0.06054 -0.31900
F 	F 	0.24439 0.17811 0.92668 -0.31700
F 	F 	0.29972 0.07986 0.95849 -0.31900
F 	F 	0.48758 0.33397 0.02201 -0.37000
