data_crystal

_cell_length_a 30.10571
_cell_length_b 30.39715
_cell_length_c 34.77653
_cell_angle_alpha 95.47997
_cell_angle_beta  95.47874
_cell_angle_gamma 125.57587

_symmetry_space_group_name_	'P 1'
_symmetry_space_group_name_H-M	'P 1'

loop_
_symmetry_equiv_pos_as_xyz
  x,y,z

loop_
_atom_site_label
_atom_site_type_symbol
_atom_site_fract_x
_atom_site_fract_y
_atom_site_fract_z
_atom_site_charge
C 	C 	0.95722 0.01107 0.99325 0.03000
C 	C 	0.01242 0.03534 0.98898 -0.07800
C 	C 	0.03117 0.00273 0.98362 0.03000
C 	C 	0.99452 0.94585 0.98256 -0.07600
C 	C 	0.93966 0.92170 0.98748 0.03200
C 	C 	0.92098 0.95429 0.99264 -0.07700
H 	H 	0.04063 0.07934 0.98991 0.04900
H 	H 	0.00887 0.92055 0.97838 0.04900
H 	H 	0.87845 0.93560 0.99628 0.05000
C 	C 	0.96200 0.01421 0.43904 0.03200
C 	C 	0.01907 0.04960 0.43861 -0.07800
C 	C 	0.05113 0.02988 0.44063 0.03300
C 	C 	0.02602 0.97460 0.44313 -0.07800
C 	C 	0.96887 0.93885 0.44325 0.03300
C 	C 	0.93684 0.95875 0.44132 -0.07800
H 	H 	0.03840 0.09233 0.43657 0.05000
H 	H 	0.05091 0.95944 0.44508 0.05000
H 	H 	0.89267 0.93127 0.44148 0.04900
Cu	Cu	0.63640 0.24036 0.00055 0.92700
Cu	Cu	0.68510 0.25439 0.91900 0.86200
Cu	Cu	0.64961 0.31943 0.94725 0.89400
Cu	Cu	0.62292 0.33361 0.02531 0.89200
C 	C 	0.65376 0.28420 0.08179 0.29400
O 	O 	0.55405 0.19992 0.00095 -0.36600
C 	C 	0.63618 0.28546 0.86226 0.29300
O 	O 	0.67147 0.32422 0.00195 -0.64300
O 	O 	0.62504 0.24243 0.94411 -0.64400
O 	O 	0.67852 0.20878 0.99846 -0.37400
O 	O 	0.73740 0.27179 0.96393 -0.44500
O 	O 	0.62110 0.29845 0.07138 -0.38900
O 	O 	0.67978 0.39626 0.95186 -0.39200
C 	C 	0.67459 0.42538 0.97935 0.29600
C 	C 	0.52647 0.21763 0.98620 0.28600
O 	O 	0.55380 0.26852 0.98035 -0.39700
O 	O 	0.64622 0.40348 0.00753 -0.39900
O 	O 	0.65838 0.25261 0.05631 -0.36500
C 	C 	0.72572 0.23462 0.98564 0.29100
O 	O 	0.62895 0.31179 0.89062 -0.38700
O 	O 	0.64904 0.25181 0.86938 -0.42800
H 	H 	0.71157 0.35234 0.01275 0.16000
H 	H 	0.58726 0.21436 0.92850 0.17400
Cu	Cu	0.74943 0.35230 0.45451 0.92700
Cu	Cu	0.73630 0.30109 0.53486 0.86300
Cu	Cu	0.66709 0.33478 0.50689 0.89500
Cu	Cu	0.65085 0.35960 0.42866 0.89200
C 	C 	0.70624 0.33591 0.37317 0.29500
O 	O 	0.78624 0.43386 0.45552 -0.36300
C 	C 	0.69329 0.33676 0.59008 0.28700
O 	O 	0.66365 0.31366 0.45218 -0.64100
O 	O 	0.74548 0.36054 0.51079 -0.64200
O 	O 	0.78430 0.31310 0.45607 -0.37400
O 	O 	0.72061 0.25155 0.48906 -0.44600
O 	O 	0.68958 0.36616 0.38372 -0.38900
O 	O 	0.58909 0.30349 0.50241 -0.39400
C 	C 	0.55691 0.30131 0.47246 0.29400
C 	C 	0.76514 0.45807 0.47019 0.28300
O 	O 	0.71320 0.42810 0.47496 -0.39900
O 	O 	0.57755 0.32968 0.44417 -0.39900
O 	O 	0.73920 0.33272 0.39868 -0.36500
C 	C 	0.75859 0.26526 0.46738 0.29000
O 	O 	0.67392 0.35283 0.56355 -0.38400
O 	O 	0.73315 0.33194 0.58442 -0.42300
H 	H 	0.63667 0.27374 0.44145 0.15900
H 	H 	0.77304 0.39781 0.52685 0.17300
C 	C 	0.61169 0.30854 0.67311 -0.09300
C 	C 	0.65251 0.32402 0.70551 0.00200
C 	C 	0.70730 0.34625 0.70025 0.02200
C 	C 	0.72075 0.35434 0.66279 -0.01800
C 	C 	0.67933 0.33603 0.62987 -0.10800
C 	C 	0.62398 0.31234 0.63507 0.09200
C 	C 	0.63631 0.31174 0.74414 0.00200
C 	C 	0.75087 0.35903 0.73406 -0.17000
H 	H 	0.76322 0.37308 0.65901 0.03800
C 	C 	0.57767 0.28986 0.60035 -0.20100
H 	H 	0.56967 0.29140 0.67734 0.05000
C 	C 	0.64955 0.35387 0.77469 0.02400
C 	C 	0.64692 0.34421 0.81339 -0.02000
C 	C 	0.62694 0.29178 0.82121 -0.11000
C 	C 	0.60377 0.24735 0.78939 0.09600
C 	C 	0.61111 0.25820 0.75130 -0.09500
C 	C 	0.66798 0.40939 0.76640 -0.17200
H 	H 	0.66209 0.37786 0.83747 0.04000
C 	C 	0.57137 0.18863 0.79565 -0.19800
H 	H 	0.59804 0.22515 0.72733 0.04800
H 	H 	0.58245 0.32429 0.58776 0.08700
H 	H 	0.53622 0.26564 0.60899 0.06600
H 	H 	0.57795 0.26192 0.57751 0.06700
H 	H 	0.73614 0.32172 0.74694 0.06000
H 	H 	0.75977 0.39238 0.75710 0.05900
H 	H 	0.79053 0.37270 0.72448 0.05500
H 	H 	0.66460 0.43290 0.79094 0.06000
H 	H 	0.64140 0.40445 0.73941 0.06500
H 	H 	0.71186 0.43374 0.76236 0.06000
H 	H 	0.54068 0.15982 0.76871 0.06200
H 	H 	0.54772 0.18260 0.81974 0.07100
H 	H 	0.60019 0.17775 0.80278 0.06800
C 	C 	0.70799 0.34503 0.19028 -0.09000
C 	C 	0.69159 0.29802 0.20600 0.00300
C 	C 	0.66901 0.24778 0.18060 0.02500
C 	C 	0.65862 0.24422 0.13977 -0.01400
C 	C 	0.67239 0.29065 0.12409 -0.10400
C 	C 	0.70015 0.34213 0.14944 0.09100
C 	C 	0.69450 0.30092 0.24899 0.00300
C 	C 	0.65362 0.19736 0.19689 -0.17200
H 	H 	0.63826 0.20492 0.12028 0.04400
C 	C 	0.71994 0.39371 0.13326 -0.19700
H 	H 	0.72623 0.38377 0.20989 0.05000
C 	C 	0.74566 0.32554 0.27459 0.02500
C 	C 	0.74864 0.33511 0.31539 -0.01400
C 	C 	0.70085 0.31863 0.33085 -0.10400
C 	C 	0.64877 0.28920 0.30528 0.09100
C 	C 	0.64631 0.28206 0.26449 -0.09000
C 	C 	0.79752 0.34379 0.25855 -0.17200
H 	H 	0.78845 0.35683 0.33504 0.04400
C 	C 	0.59600 0.26680 0.32121 -0.19700
H 	H 	0.60693 0.26234 0.24472 0.05000
H 	H 	0.75231 0.43119 0.15533 0.06200
H 	H 	0.68446 0.39538 0.12507 0.06100
H 	H 	0.73863 0.39469 0.10702 0.05500
H 	H 	0.61537 0.18076 0.20942 0.06300
H 	H 	0.68790 0.20778 0.22021 0.06300
H 	H 	0.64582 0.16461 0.17371 0.06100
H 	H 	0.83142 0.35344 0.28188 0.06100
H 	H 	0.81220 0.38125 0.24590 0.06300
H 	H 	0.78897 0.31067 0.23537 0.06300
H 	H 	0.59215 0.30045 0.32962 0.06100
H 	H 	0.59599 0.24832 0.34728 0.05500
H 	H 	0.55883 0.23405 0.29893 0.06300
C 	C 	0.94285 0.88053 0.44523 -0.00900
C 	C 	0.94319 0.84679 0.41494 -0.03100
C 	C 	0.92698 0.79442 0.41943 -0.05300
C 	C 	0.90950 0.77494 0.45399 0.02700
C 	C 	0.90739 0.80798 0.48381 -0.05300
C 	C 	0.92382 0.86050 0.47937 -0.03100
C 	C 	0.89790 0.72192 0.46002 -0.04700
C 	C 	0.85004 0.68277 0.47037 -0.05700
C 	C 	0.83621 0.62794 0.47345 0.04600
C 	C 	0.80991 0.60200 0.50395 -0.07700
C 	C 	0.78987 0.54743 0.50432 0.01700
C 	C 	0.79574 0.51812 0.47408 -0.09400
C 	C 	0.82426 0.54480 0.44449 0.01700
C 	C 	0.84380 0.59918 0.44388 -0.07600
H 	H 	0.95770 0.86184 0.38845 0.03500
H 	H 	0.92881 0.76930 0.39629 0.03900
H 	H 	0.89469 0.79370 0.51087 0.04000
H 	H 	0.92370 0.88634 0.50301 0.03500
H 	H 	0.92730 0.71365 0.45365 0.03900
H 	H 	0.82110 0.69147 0.47729 0.04200
H 	H 	0.80376 0.62369 0.52687 0.04500
H 	H 	0.76824 0.52739 0.52745 0.02700
H 	H 	0.82868 0.52252 0.42080 0.03400
H 	H 	0.86274 0.61810 0.41958 0.04600
C 	C 	0.77442 0.22826 0.45786 -0.10200
C 	C 	0.82920 0.25001 0.45365 0.01800
C 	C 	0.84611 0.21577 0.45042 -0.07900
C 	C 	0.80823 0.15934 0.45096 0.04600
C 	C 	0.75303 0.13732 0.45357 -0.08100
C 	C 	0.73608 0.17145 0.45672 0.01800
C 	C 	0.82748 0.12446 0.45341 -0.05800
C 	C 	0.85862 0.12375 0.42847 -0.04600
C 	C 	0.87964 0.09046 0.43205 0.02600
C 	C 	0.87692 0.05926 0.39822 -0.05300
C 	C 	0.90120 0.03170 0.40084 -0.03100
C 	C 	0.92889 0.03559 0.43725 -0.00900
C 	C 	0.93063 0.06579 0.47122 -0.03200
C 	C 	0.90636 0.09332 0.46866 -0.05300
H 	H 	0.85925 0.29371 0.45449 0.02900
H 	H 	0.88908 0.23345 0.44895 0.04600
H 	H 	0.72348 0.09388 0.45396 0.04400
H 	H 	0.69344 0.15393 0.45924 0.02400
H 	H 	0.81432 0.09755 0.47493 0.04100
H 	H 	0.86722 0.14647 0.40449 0.03900
H 	H 	0.85673 0.05702 0.36982 0.03900
H 	H 	0.89999 0.00876 0.37441 0.03500
H 	H 	0.95236 0.06940 0.49940 0.03400
H 	H 	0.90977 0.11817 0.49490 0.03900
C 	C 	0.49720 0.27211 0.47333 -0.09700
C 	C 	0.46972 0.22697 0.49255 0.01900
C 	C 	0.41300 0.19874 0.49291 -0.08100
C 	C 	0.38304 0.21501 0.47384 0.04700
C 	C 	0.41076 0.26109 0.45554 -0.07900
C 	C 	0.46744 0.28924 0.45504 0.02000
C 	C 	0.32301 0.18466 0.47433 -0.05800
C 	C 	0.28648 0.16985 0.44141 -0.04600
C 	C 	0.22600 0.13485 0.44101 0.02600
C 	C 	0.20408 0.14708 0.47062 -0.05300
C 	C 	0.14692 0.11309 0.47030 -0.03100
C 	C 	0.11112 0.06710 0.44010 -0.00900
C 	C 	0.13283 0.05594 0.40986 -0.03100
C 	C 	0.18999 0.08980 0.41025 -0.05300
H 	H 	0.49215 0.21339 0.50687 0.02200
H 	H 	0.39219 0.16380 0.50763 0.04400
H 	H 	0.38851 0.27529 0.44195 0.04700
H 	H 	0.48828 0.32469 0.44083 0.02900
H 	H 	0.30808 0.17045 0.50105 0.04200
H 	H 	0.30095 0.17971 0.41382 0.03800
H 	H 	0.23127 0.18283 0.49383 0.04000
H 	H 	0.13050 0.12223 0.49365 0.03400
H 	H 	0.10543 0.02087 0.38618 0.03400
H 	H 	0.20639 0.08060 0.38692 0.03900
C 	C 	0.69742 0.48294 0.97681 -0.09300
C 	C 	0.70839 0.50122 0.94088 0.01900
C 	C 	0.73089 0.55594 0.93872 -0.08000
C 	C 	0.74301 0.59302 0.97242 0.04900
C 	C 	0.73047 0.57444 0.00806 -0.08000
C 	C 	0.70831 0.51985 0.01034 0.01700
C 	C 	0.76814 0.65111 0.97001 -0.05900
C 	C 	0.81270 0.69229 0.99652 -0.04400
C 	C 	0.84017 0.75033 0.99282 0.02700
C 	C 	0.85452 0.78937 0.02591 -0.05400
C 	C 	0.88527 0.84521 0.02375 -0.03300
C 	C 	0.90242 0.86252 0.98857 -0.00600
C 	C 	0.88728 0.82345 0.95525 -0.03200
C 	C 	0.85655 0.76761 0.95739 -0.05200
H 	H 	0.69931 0.47307 0.91458 0.03200
H 	H 	0.73952 0.56969 0.91094 0.04500
H 	H 	0.73795 0.60228 0.03399 0.04600
H 	H 	0.69997 0.50640 0.03822 0.02600
H 	H 	0.75240 0.66025 0.94494 0.04200
H 	H 	0.82846 0.68321 0.02162 0.03700
H 	H 	0.84249 0.77650 0.05344 0.03900
H 	H 	0.89699 0.87514 0.04967 0.03500
H 	H 	0.90043 0.83649 0.92798 0.03500
H 	H 	0.84677 0.73799 0.93188 0.03900
C 	C 	0.93710 0.04493 0.99807 -0.00600
C 	C 	0.95202 0.07926 0.03423 -0.03500
C 	C 	0.92935 0.10805 0.03978 -0.05200
C 	C 	0.89216 0.10327 0.00908 0.02400
C 	C 	0.87764 0.06922 0.97276 -0.05000
C 	C 	0.90021 0.04038 0.96727 -0.03400
C 	C 	0.86519 0.13051 0.01604 -0.04800
C 	C 	0.86155 0.15866 0.98996 -0.05700
C 	C 	0.82929 0.18074 0.99448 0.04800
C 	C 	0.77475 0.14695 0.00158 -0.08100
C 	C 	0.74177 0.16551 0.00054 0.01700
C 	C 	0.76271 0.21781 0.99192 -0.10100
C 	C 	0.81796 0.25231 0.98631 0.01600
C 	C 	0.85087 0.23367 0.98730 -0.08100
H 	H 	0.98028 0.08276 0.05823 0.03500
H 	H 	0.94038 0.13375 0.06801 0.03900
H 	H 	0.84798 0.06417 0.94911 0.03900
H 	H 	0.88827 0.01373 0.93933 0.03500
H 	H 	0.84876 0.12807 0.04292 0.03900
H 	H 	0.88298 0.16594 0.96521 0.04100
H 	H 	0.75725 0.10562 0.00649 0.04600
H 	H 	0.69933 0.13842 0.00501 0.03100
H 	H 	0.83506 0.29313 0.98036 0.02400
H 	H 	0.89285 0.26003 0.98177 0.04400
C 	C 	0.08947 0.02811 0.97986 -0.00600
C 	C 	0.11098 0.05676 0.94917 -0.03200
C 	C 	0.16496 0.07743 0.94402 -0.05300
C 	C 	0.19796 0.06982 0.96958 0.02800
C 	C 	0.17620 0.04073 0.00011 -0.05400
C 	C 	0.12259 0.02075 0.00556 -0.03400
C 	C 	0.25420 0.08995 0.96293 -0.04700
C 	C 	0.29744 0.11540 0.99312 -0.05500
C 	C 	0.35340 0.13471 0.98668 0.04700
C 	C 	0.38394 0.12289 0.01066 -0.07900
C 	C 	0.43964 0.14716 0.00868 0.01600
C 	C 	0.46561 0.18419 0.98304 -0.09300
C 	C 	0.43425 0.19395 0.95768 0.01600
C 	C 	0.37852 0.16962 0.95967 -0.07700
H 	H 	0.08557 0.06218 0.92893 0.03500
H 	H 	0.18107 0.09920 0.92010 0.03900
H 	H 	0.20046 0.03286 0.01922 0.03900
H 	H 	0.10636 0.99864 0.02932 0.03500
H 	H 	0.26068 0.08567 0.93298 0.03900
H 	H 	0.29117 0.12030 0.02305 0.04100
H 	H 	0.36490 0.09597 0.03156 0.04600
H 	H 	0.46320 0.13906 0.02833 0.03500
H 	H 	0.45351 0.22177 0.93735 0.02900
H 	H 	0.35550 0.17947 0.94124 0.04600
