data_crystal

_cell_length_a 18.56065
_cell_length_b 18.86780
_cell_length_c 34.72395
_cell_angle_alpha 95.37892
_cell_angle_beta  95.37925
_cell_angle_gamma 126.39362

_symmetry_space_group_name_	'P 1'
_symmetry_space_group_name_H-M	'P 1'

loop_
_symmetry_equiv_pos_as_xyz
  x,y,z

loop_
_atom_site_label
_atom_site_type_symbol
_atom_site_fract_x
_atom_site_fract_y
_atom_site_fract_z
_atom_site_charge
C 	C 	0.93997 0.01914 0.97835 0.08400
C 	C 	0.89507 0.92796 0.98029 -0.08100
C 	C 	0.94392 0.89256 0.98065 0.08100
C 	C 	0.03733 0.94869 0.98002 -0.08500
C 	C 	0.08156 0.03877 0.97743 0.08700
C 	C 	0.03250 0.07333 0.97571 -0.07500
H 	H 	0.82305 0.88510 0.98140 0.08600
H 	H 	0.07531 0.92184 0.98094 0.08800
H 	H 	0.06663 0.14275 0.97295 0.09200
C 	C 	0.94078 0.03685 0.49256 0.08400
C 	C 	0.03358 0.07886 0.49283 -0.07600
C 	C 	0.06604 0.02799 0.49191 0.08700
C 	C 	0.00608 0.93577 0.49128 -0.08200
C 	C 	0.91413 0.89442 0.49218 0.08100
C 	C 	0.88132 0.94471 0.49243 -0.08300
H 	H 	0.07990 0.15032 0.49323 0.09000
H 	H 	0.03129 0.89655 0.49082 0.09100
H 	H 	0.80974 0.91231 0.49257 0.08700
Cu	Cu	0.77832 0.35453 0.96002 0.93700
Cu	Cu	0.72464 0.24671 0.03352 0.88500
Cu	Cu	0.64012 0.32646 0.00889 0.90800
Cu	Cu	0.61467 0.35943 0.92732 0.91900
C 	C 	0.72412 0.33923 0.87721 0.30700
O 	O 	0.83553 0.48836 0.96489 -0.32300
C 	C 	0.66554 0.31385 0.09132 0.29800
O 	O 	0.63719 0.28989 0.95395 -0.62900
O 	O 	0.76282 0.35675 0.01536 -0.63900
O 	O 	0.83241 0.28866 0.96211 -0.31500
O 	O 	0.71249 0.17896 0.98609 -0.39500
O 	O 	0.69188 0.38312 0.88702 -0.34400
O 	O 	0.52329 0.30519 0.00255 -0.31800
C 	C 	0.46297 0.26626 0.96952 0.30400
C 	C 	0.79303 0.52200 0.97534 0.29200
O 	O 	0.70565 0.46828 0.97645 -0.37400
O 	O 	0.48770 0.29102 0.93597 -0.34100
O 	O 	0.77332 0.33212 0.90422 -0.28500
C 	C 	0.78441 0.20731 0.97027 0.32400
O 	O 	0.64797 0.35145 0.06557 -0.30200
O 	O 	0.71565 0.28709 0.08462 -0.37500
H 	H 	0.59454 0.22435 0.94414 0.21100
H 	H 	0.80977 0.41321 0.03413 0.19600
Cu	Cu	0.61172 0.20319 0.50329 0.93800
Cu	Cu	0.68396 0.22606 0.41974 0.89500
Cu	Cu	0.64670 0.34360 0.45506 0.90700
Cu	Cu	0.61181 0.36342 0.53562 0.91400
C 	C 	0.63613 0.25640 0.58681 0.30300
O 	O 	0.47921 0.14736 0.50540 -0.30600
C 	C 	0.60777 0.28589 0.36824 0.30600
O 	O 	0.68223 0.34215 0.50863 -0.63900
O 	O 	0.59344 0.21452 0.44792 -0.63700
O 	O 	0.67343 0.14656 0.49675 -0.33200
O 	O 	0.77095 0.25108 0.46284 -0.40800
O 	O 	0.59836 0.29609 0.57911 -0.30800
O 	O 	0.70810 0.47113 0.46405 -0.35300
C 	C 	0.70389 0.51834 0.49312 0.31600
C 	C 	0.44231 0.18493 0.49302 0.30300
O 	O 	0.49480 0.26937 0.48963 -0.36700
O 	O 	0.66271 0.48346 0.52273 -0.35800
O 	O 	0.64804 0.21468 0.55839 -0.31800
C 	C 	0.75060 0.18922 0.48372 0.31300
O 	O 	0.62382 0.34477 0.39856 -0.34000
O 	O 	0.62248 0.22645 0.37263 -0.32500
H 	H 	0.74865 0.38293 0.51899 0.19200
H 	H 	0.53015 0.17381 0.43291 0.22300
C 	C 	0.69703 0.22294 0.77540 0.03300
C 	C 	0.71387 0.28770 0.75299 0.09900
C 	C 	0.74190 0.37238 0.77196 -0.10400
C 	C 	0.75147 0.38970 0.81311 0.07600
C 	C 	0.72890 0.32297 0.83529 0.00700
C 	C 	0.70256 0.23887 0.81641 -0.06700
C 	C 	0.68969 0.26177 0.70947 0.09100
C 	C 	0.75232 0.44076 0.74819 0.78900
H 	H 	0.77296 0.45418 0.82790 0.10300
C 	C 	0.68313 0.16721 0.83989 0.77900
H 	H 	0.67646 0.15884 0.76052 0.12700
C 	C 	0.75540 0.27821 0.68642 -0.09500
C 	C 	0.73592 0.27342 0.64565 0.07800
C 	C 	0.64946 0.24419 0.62757 0.01100
C 	C 	0.57876 0.21040 0.64977 -0.06100
C 	C 	0.60089 0.22406 0.69090 0.04000
C 	C 	0.84513 0.29969 0.70509 0.78900
H 	H 	0.78862 0.29527 0.62822 0.09600
C 	C 	0.48060 0.16321 0.63025 0.77700
H 	H 	0.54965 0.20763 0.70863 0.11400
F 	F 	0.76324 0.19552 0.86341 -0.41700
F 	F 	0.64793 0.08685 0.81564 -0.40900
F 	F 	0.62033 0.15124 0.86328 -0.44200
F 	F 	0.66758 0.40987 0.72866 -0.42100
F 	F 	0.80728 0.45502 0.72097 -0.39800
F 	F 	0.79142 0.52267 0.77203 -0.40900
F 	F 	0.42132 0.10530 0.65286 -0.40900
F 	F 	0.46057 0.11307 0.59366 -0.43200
F 	F 	0.46595 0.22612 0.62613 -0.42400
F 	F 	0.89599 0.30536 0.67713 -0.40700
F 	F 	0.82851 0.23293 0.72518 -0.41300
F 	F 	0.89619 0.38056 0.73118 -0.38700
C 	C 	0.54739 0.30304 0.17731 0.03200
C 	C 	0.61004 0.31708 0.20886 0.09800
C 	C 	0.69088 0.33045 0.20180 -0.10500
C 	C 	0.71122 0.33834 0.16374 0.07800
C 	C 	0.64666 0.31965 0.13167 0.00500
C 	C 	0.56206 0.29873 0.13836 -0.06500
C 	C 	0.58625 0.30914 0.24862 0.09100
C 	C 	0.75182 0.32944 0.23394 0.78800
H 	H 	0.77619 0.35579 0.15866 0.09400
C 	C 	0.48808 0.27361 0.10451 0.77500
H 	H 	0.48579 0.29287 0.18310 0.12400
C 	C 	0.62382 0.38598 0.27765 -0.09800
C 	C 	0.62609 0.37770 0.31755 0.08200
C 	C 	0.58176 0.29270 0.32791 0.01200
C 	C 	0.52435 0.21524 0.29798 -0.06300
C 	C 	0.53146 0.22403 0.25853 0.04300
C 	C 	0.66156 0.47605 0.26624 0.79000
H 	H 	0.66593 0.43715 0.34039 0.09900
C 	C 	0.45766 0.12321 0.30767 0.78000
H 	H 	0.49716 0.16479 0.23575 0.11200
F 	F 	0.51308 0.34940 0.08989 -0.42400
F 	F 	0.40562 0.23728 0.11659 -0.41800
F 	F 	0.47447 0.21030 0.07483 -0.45500
F 	F 	0.70228 0.24872 0.24691 -0.42300
F 	F 	0.78635 0.39849 0.26533 -0.40100
F 	F 	0.82473 0.33936 0.22052 -0.41300
F 	F 	0.38203 0.07017 0.27773 -0.40500
F 	F 	0.42771 0.12887 0.34202 -0.42800
F 	F 	0.49910 0.08233 0.31183 -0.41100
F 	F 	0.67636 0.53694 0.29761 -0.40900
F 	F 	0.60042 0.46626 0.23604 -0.41400
F 	F 	0.74319 0.51059 0.25382 -0.39000
C 	C 	0.79258 0.73685 0.45954 -0.06200
C 	C 	0.85264 0.79861 0.49375 -0.00000
C 	C 	0.85837 0.76811 0.52858 0.07500
C 	C 	0.80754 0.67611 0.52826 -0.00300
C 	C 	0.75020 0.61416 0.49362 -0.08000
C 	C 	0.74060 0.64472 0.45935 0.13100
N 	N 	0.67723 0.58245 0.42453 -0.02600
H 	H 	0.78683 0.76043 0.43297 0.09700
H 	H 	0.81383 0.65281 0.55484 0.08200
N 	N 	0.91689 0.83057 0.56418 -0.01900
O 	O 	0.59140 0.52451 0.42590 -0.05800
O 	O 	0.70406 0.58849 0.39090 -0.03100
O 	O 	0.90692 0.88971 0.57874 -0.05800
O 	O 	0.97596 0.82435 0.58341 -0.04900
C 	C 	0.89015 0.11881 0.52535 -0.06200
C 	C 	0.90463 0.08816 0.49071 0.00200
C 	C 	0.87272 0.09543 0.45400 0.07200
C 	C 	0.82374 0.13001 0.45215 0.00000
C 	C 	0.80638 0.15769 0.48664 -0.08800
C 	C 	0.84170 0.15415 0.52353 0.13500
N 	N 	0.83034 0.18825 0.55916 -0.02400
H 	H 	0.91531 0.11393 0.55367 0.10100
H 	H 	0.79771 0.13380 0.42375 0.06200
N 	N 	0.88693 0.06446 0.41839 -0.01900
O 	O 	0.79375 0.13745 0.58506 -0.03700
O 	O 	0.86250 0.27189 0.56698 -0.05900
O 	O 	0.81746 0.00016 0.39193 -0.05500
O 	O 	0.96898 0.10454 0.41127 -0.06600
C 	C 	0.19346 0.07373 0.45656 -0.05400
C 	C 	0.16313 0.07117 0.49226 -0.00600
C 	C 	0.22418 0.10338 0.52815 0.09200
C 	C 	0.31472 0.13756 0.52799 -0.01000
C 	C 	0.34518 0.14030 0.49234 -0.06300
C 	C 	0.28441 0.10887 0.45642 0.12300
N 	N 	0.31463 0.11194 0.41978 -0.02800
H 	H 	0.14639 0.04838 0.42889 0.09600
H 	H 	0.36182 0.16347 0.55563 0.12900
N 	N 	0.19467 0.10253 0.56482 -0.01900
O 	O 	0.28015 0.03790 0.39545 -0.02100
O 	O 	0.37037 0.18863 0.40924 -0.04500
O 	O 	0.13949 0.02691 0.57627 -0.03700
O 	O 	0.22902 0.17764 0.58825 -0.03500
C 	C 	0.84998 0.67060 0.01255 -0.00900
C 	C 	0.83769 0.61848 0.97731 -0.07300
C 	C 	0.85372 0.65488 0.94264 0.12100
C 	C 	0.88231 0.74257 0.94360 -0.06000
C 	C 	0.89694 0.79553 0.97898 -0.00100
C 	C 	0.88043 0.75916 0.01366 0.07600
N 	N 	0.89446 0.81183 0.05006 -0.02000
H 	H 	0.83566 0.64234 0.03911 0.08000
H 	H 	0.89565 0.77045 0.91693 0.09000
N 	N 	0.83843 0.60207 0.90608 -0.02800
O 	O 	0.82685 0.78542 0.06831 -0.05300
O 	O 	0.97604 0.88236 0.06642 -0.05300
O 	O 	0.77459 0.58064 0.87744 -0.06000
O 	O 	0.89523 0.58511 0.89981 -0.05300
C 	C 	0.82160 0.03145 0.94762 -0.05600
C 	C 	0.89089 0.05888 0.97928 0.00400
C 	C 	0.92291 0.13363 0.00850 0.07100
C 	C 	0.89106 0.18429 0.00393 -0.00900
C 	C 	0.82363 0.15843 0.97173 -0.07900
C 	C 	0.78643 0.07963 0.94406 0.13900
N 	N 	0.71370 0.04863 0.91214 -0.01900
H 	H 	0.79590 0.97343 0.92538 0.08500
H 	H 	0.91666 0.24221 0.02622 0.06000
N 	N 	0.98731 0.15783 0.04303 -0.02000
O 	O 	0.71833 0.02498 0.87659 0.00500
O 	O 	0.63771 0.03123 0.91935 -0.02400
O 	O 	0.05740 0.24119 0.05549 -0.05500
O 	O 	0.97260 0.09753 0.06349 -0.05100
C 	C 	0.20958 0.07828 0.94359 -0.05400
C 	C 	0.17942 0.09674 0.97585 -0.00300
C 	C 	0.24275 0.17047 0.00635 0.09200
C 	C 	0.33485 0.22678 0.00345 -0.00300
C 	C 	0.36529 0.20786 0.97138 -0.05700
C 	C 	0.30225 0.13212 0.94160 0.12100
N 	N 	0.33249 0.10786 0.91007 -0.02300
H 	H 	0.16111 0.02097 0.92036 0.08900
H 	H 	0.38285 0.28488 0.02637 0.13100
N 	N 	0.21401 0.18740 0.04062 -0.01700
O 	O 	0.38619 0.08593 0.91752 -0.06700
O 	O 	0.30012 0.10018 0.87377 -0.04800
O 	O 	0.17227 0.12596 0.06190 -0.02800
O 	O 	0.23724 0.26693 0.05260 -0.03500
