data_crystal

_cell_length_a 26.22953
_cell_length_b 34.64680
_cell_length_c 25.76074
_cell_angle_alpha 90.00079
_cell_angle_beta  91.78909
_cell_angle_gamma 89.99866

_symmetry_space_group_name_	'P 1'
_symmetry_space_group_name_H-M	'P 1'

loop_
_symmetry_equiv_pos_as_xyz
  x,y,z

loop_
_atom_site_label
_atom_site_type_symbol
_atom_site_fract_x
_atom_site_fract_y
_atom_site_fract_z
_atom_site_charge
N 	N 	0.81763 0.22781 0.05705 -0.13500
C 	C 	0.80317 0.24438 0.01108 0.13800
N 	N 	0.81990 0.22950 0.96587 -0.13600
C 	C 	0.85110 0.19822 0.96660 0.14200
N 	N 	0.86553 0.18185 0.01256 -0.14100
C 	C 	0.84890 0.19658 0.05775 0.14000
C 	C 	0.70409 0.34424 0.00488 -0.01700
C 	C 	0.74815 0.34260 0.97508 -0.03500
C 	C 	0.78066 0.31018 0.97767 -0.01100
C 	C 	0.76988 0.27868 0.01021 -0.04200
C 	C 	0.72668 0.28041 0.04069 0.06100
C 	C 	0.69354 0.31348 0.03798 0.04000
H 	H 	0.75713 0.36631 0.94951 0.04700
H 	H 	0.81421 0.30962 0.95418 0.04800
N 	N 	0.70972 0.24985 0.06882 -0.11100
N 	N 	0.64914 0.31042 0.06394 -0.11000
C 	C 	0.89308 0.13149 0.19437 -0.01800
C 	C 	0.92987 0.15078 0.16606 0.04100
C 	C 	0.91508 0.17401 0.12202 0.06100
C 	C 	0.86368 0.17798 0.10711 -0.04100
C 	C 	0.82664 0.15961 0.13692 -0.01400
C 	C 	0.84119 0.13651 0.18004 -0.03700
N 	N 	0.98097 0.14861 0.17740 -0.11200
N 	N 	0.95381 0.19121 0.09646 -0.11000
C 	C 	0.90685 0.14571 0.82732 -0.01800
C 	C 	0.88464 0.12320 0.86607 -0.03700
C 	C 	0.86523 0.14058 0.91078 -0.01300
C 	C 	0.86745 0.18092 0.91769 -0.04200
C 	C 	0.88811 0.20359 0.87864 0.06100
C 	C 	0.90795 0.18582 0.83306 0.04100
H 	H 	0.88299 0.09209 0.86199 0.04500
H 	H 	0.84886 0.12252 0.94029 0.04400
N 	N 	0.89586 0.24241 0.88334 -0.11100
N 	N 	0.93193 0.20986 0.79968 -0.11100
S 	S 	0.65534 0.26694 0.08804 0.09700
S 	S 	0.00295 0.17586 0.13130 0.09600
S 	S 	0.92621 0.25104 0.83004 0.09800
H 	H 	0.78659 0.16221 0.12587 0.04500
H 	H 	0.81205 0.12204 0.20171 0.04400
N 	N 	0.31355 0.86787 0.06024 -0.13700
C 	C 	0.28922 0.90247 0.06062 0.13800
N 	N 	0.27726 0.92054 0.01501 -0.13900
C 	C 	0.28949 0.90398 0.96917 0.14000
N 	N 	0.31419 0.86953 0.96913 -0.13700
C 	C 	0.32653 0.85156 0.01462 0.13800
C 	C 	0.23359 0.94073 0.20837 -0.02000
C 	C 	0.20332 0.94445 0.16245 -0.03600
C 	C 	0.22240 0.93360 0.11392 -0.01600
C 	C 	0.27223 0.91876 0.11018 -0.04000
C 	C 	0.30327 0.91663 0.15535 0.06000
C 	C 	0.28368 0.92745 0.20477 0.04200
H 	H 	0.16458 0.95509 0.16433 0.04300
H 	H 	0.19771 0.93564 0.07952 0.04700
N 	N 	0.35156 0.90188 0.15639 -0.10900
N 	N 	0.31546 0.92142 0.24696 -0.11200
C 	C 	0.39819 0.73907 0.01485 -0.01700
C 	C 	0.41521 0.76809 0.98193 0.04200
C 	C 	0.39159 0.80554 0.98170 0.06300
C 	C 	0.35124 0.81335 0.01442 -0.04300
C 	C 	0.33414 0.78378 0.04721 -0.01300
C 	C 	0.35731 0.74706 0.04736 -0.03800
N 	N 	0.45757 0.76447 0.95286 -0.11100
N 	N 	0.41441 0.83311 0.95253 -0.11100
C 	C 	0.24411 0.95155 0.81948 -0.01900
C 	C 	0.29362 0.93688 0.82867 -0.03600
C 	C 	0.30886 0.92267 0.87807 -0.01500
C 	C 	0.27486 0.92275 0.91945 -0.04000
C 	C 	0.22607 0.93841 0.91105 0.06000
C 	C 	0.21064 0.95298 0.86063 0.04200
H 	H 	0.32023 0.93593 0.79737 0.04500
H 	H 	0.34698 0.91108 0.88387 0.04700
N 	N 	0.18853 0.93593 0.94644 -0.11100
N 	N 	0.16038 0.96268 0.85430 -0.11100
S 	S 	0.36524 0.90355 0.21874 0.09800
S 	S 	0.46159 0.80821 0.92943 0.09600
S 	S 	0.13986 0.95242 0.91197 0.09500
H 	H 	0.30260 0.78905 0.07243 0.04400
H 	H 	0.34326 0.72479 0.07274 0.04500
Zn	Zn	0.44408 0.49414 0.00610 1.20400
Zn	Zn	0.51049 0.53916 0.92531 1.22000
Zn	Zn	0.53307 0.51804 0.08587 1.22000
P 	P 	0.47720 0.57463 0.02240 0.30500
P 	P 	0.55184 0.47600 0.98871 0.31000
C 	C 	0.61997 0.53835 0.14687 0.27800
C 	C 	0.44118 0.47534 0.11320 0.30100
C 	C 	0.41505 0.49895 0.89940 0.30100
O 	O 	0.43024 0.54949 0.00172 -0.43700
O 	O 	0.50112 0.45787 0.01022 -0.43700
O 	O 	0.52545 0.56927 0.98684 -0.43300
O 	O 	0.57125 0.51143 0.02365 -0.42700
O 	O 	0.49052 0.56370 0.08160 -0.41800
O 	O 	0.54246 0.48867 0.92943 -0.40900
O 	O 	0.57300 0.52545 0.14925 -0.41800
O 	O 	0.61538 0.54929 0.88892 -0.24100
O 	O 	0.64246 0.53891 0.10203 -0.24400
O 	O 	0.49103 0.47290 0.10831 -0.43700
O 	O 	0.43659 0.53321 0.90429 -0.43900
O 	O 	0.41152 0.48337 0.07238 -0.43100
O 	O 	0.41188 0.47628 0.94025 -0.42900
C 	C 	0.58294 0.56462 0.85495 0.28300
O 	O 	0.53374 0.56149 0.86182 -0.42000
N 	N 	0.27023 0.36456 0.45651 -0.13800
C 	C 	0.30153 0.39575 0.45693 0.13800
N 	N 	0.31564 0.41260 0.50284 -0.13800
C 	C 	0.29895 0.39783 0.54820 0.13900
N 	N 	0.26874 0.36600 0.54752 -0.13700
C 	C 	0.25424 0.34936 0.50172 0.14000
C 	C 	0.35918 0.43467 0.31034 -0.02000
C 	C 	0.34041 0.46127 0.34649 -0.03600
C 	C 	0.32270 0.44863 0.39488 -0.01500
C 	C 	0.32345 0.40913 0.40808 -0.04000
C 	C 	0.34253 0.38267 0.37249 0.06000
C 	C 	0.36032 0.39554 0.32326 0.04200
H 	H 	0.33934 0.49176 0.33718 0.04400
H 	H 	0.30781 0.46958 0.42170 0.04600
N 	N 	0.34945 0.34442 0.38335 -0.11200
N 	N 	0.38195 0.36804 0.29304 -0.11100
C 	C 	0.17704 0.23907 0.50225 -0.01600
C 	C 	0.16197 0.26849 0.53553 0.04000
C 	C 	0.18695 0.30541 0.53503 0.06100
C 	C 	0.22678 0.31226 0.50131 -0.04100
C 	C 	0.24170 0.28233 0.46793 -0.01400
C 	C 	0.21712 0.24618 0.46842 -0.03700
N 	N 	0.12075 0.26564 0.56635 -0.11100
N 	N 	0.16644 0.33335 0.56536 -0.11000
C 	C 	0.34569 0.44437 0.69807 -0.01900
C 	C 	0.35124 0.40481 0.68698 -0.03600
C 	C 	0.33684 0.38991 0.63773 -0.01400
C 	C 	0.31687 0.41428 0.59825 -0.04000
C 	C 	0.31218 0.45373 0.60855 0.06100
C 	C 	0.32655 0.46887 0.65892 0.04100
H 	H 	0.36673 0.38546 0.71651 0.04400
H 	H 	0.34118 0.35931 0.63040 0.04400
N 	N 	0.28854 0.47900 0.57503 -0.11100
N 	N 	0.31493 0.50673 0.66721 -0.11100
S 	S 	0.37677 0.33019 0.33045 0.09500
S 	S 	0.11933 0.30937 0.59024 0.09900
S 	S 	0.28807 0.51789 0.61103 0.09700
H 	H 	0.27288 0.28679 0.44198 0.04800
H 	H 	0.22965 0.22357 0.44270 0.04500
N 	N 	0.76181 0.72591 0.45737 -0.13700
C 	C 	0.77296 0.74557 0.50194 0.13900
N 	N 	0.75187 0.73441 0.54707 -0.13700
C 	C 	0.72051 0.70325 0.54785 0.13900
N 	N 	0.70957 0.68370 0.50327 -0.13900
C 	C 	0.72993 0.69507 0.45803 0.14000
C 	C 	0.87575 0.84316 0.50504 -0.01500
C 	C 	0.82925 0.84452 0.53083 -0.03700
C 	C 	0.79546 0.81287 0.52902 -0.01300
C 	C 	0.80743 0.77913 0.50135 -0.04000
C 	C 	0.85305 0.77790 0.47459 0.06100
C 	C 	0.88744 0.81023 0.47643 0.04000
H 	H 	0.81941 0.86995 0.55286 0.04600
H 	H 	0.76005 0.81462 0.54945 0.04500
N 	N 	0.87089 0.74523 0.45173 -0.11100
N 	N 	0.93378 0.80445 0.45499 -0.11100
C 	C 	0.69167 0.62619 0.32291 -0.01800
C 	C 	0.65334 0.64439 0.35036 0.04100
C 	C 	0.66607 0.66838 0.39425 0.06100
C 	C 	0.71698 0.67415 0.40988 -0.04100
C 	C 	0.75553 0.65640 0.38139 -0.01400
C 	C 	0.74300 0.63256 0.33841 -0.03700
N 	N 	0.60279 0.64232 0.33634 -0.11200
N 	N 	0.62617 0.68635 0.41696 -0.11200
C 	C 	0.65842 0.65522 0.68694 -0.01900
C 	C 	0.62817 0.65890 0.64110 -0.03600
C 	C 	0.64773 0.67648 0.59662 -0.01500
C 	C 	0.69818 0.69057 0.59679 -0.04100
C 	C 	0.72763 0.68881 0.64302 0.06000
C 	C 	0.70743 0.67119 0.68856 0.04100
H 	H 	0.58989 0.64713 0.63933 0.04400
H 	H 	0.62392 0.67823 0.56156 0.04600
N 	N 	0.77798 0.69880 0.64634 -0.10900
N 	N 	0.74087 0.66684 0.72983 -0.11100
S 	S 	0.92756 0.75972 0.43554 0.09700
S 	S 	0.57867 0.67053 0.38019 0.09400
S 	S 	0.79246 0.68526 0.70580 0.09900
H 	H 	0.79523 0.66031 0.39312 0.04600
H 	H 	0.77328 0.61881 0.31753 0.04500
Zn	Zn	0.13669 0.99431 0.51108 1.20400
Zn	Zn	0.06719 0.03662 0.59059 1.22000
Zn	Zn	0.04999 0.01710 0.42912 1.21900
P 	P 	0.10223 0.07396 0.49548 0.30500
P 	P 	0.02948 0.97368 0.52475 0.30700
C 	C 	0.96476 0.03908 0.36688 0.27700
C 	C 	0.14370 0.97541 0.40405 0.30200
C 	C 	0.16435 0.99831 0.61850 0.30200
O 	O 	0.14929 0.04966 0.51761 -0.43800
O 	O 	0.08135 0.95674 0.50441 -0.43700
O 	O 	0.05306 0.06719 0.52920 -0.43100
O 	O 	0.01004 0.00914 0.48990 -0.42500
O 	O 	0.09157 0.06310 0.43579 -0.41900
O 	O 	0.03687 0.98577 0.58445 -0.41300
O 	O 	0.01150 0.02560 0.36499 -0.41500
O 	O 	0.96438 0.06515 0.60865 -0.24300
O 	O 	0.94108 0.03840 0.41105 -0.24200
O 	O 	0.09360 0.97270 0.40660 -0.43700
O 	O 	0.14063 0.03189 0.61484 -0.43900
O 	O 	0.17142 0.98507 0.44560 -0.43100
O 	O 	0.16783 0.97617 0.57713 -0.43200
C 	C 	0.99221 0.06951 0.65155 0.28000
O 	O 	0.03978 0.05763 0.65310 -0.41600
C 	C 	0.92129 0.89923 0.46737 -0.05300
C 	C 	0.91224 0.87536 0.51009 0.04000
C 	C 	0.93845 0.88197 0.55753 -0.05600
C 	C 	0.97370 0.91210 0.56217 0.00200
C 	C 	0.98270 0.93601 0.51950 -0.03200
C 	C 	0.95652 0.92940 0.47203 0.00300
H 	H 	0.90122 0.89429 0.43057 0.05500
H 	H 	0.93183 0.86355 0.59063 0.05300
H 	H 	0.99425 0.91662 0.59877 0.05000
H 	H 	0.96371 0.94741 0.43868 0.03400
C 	C 	0.16266 0.17606 0.54594 -0.05300
C 	C 	0.15301 0.20069 0.50355 0.04000
C 	C 	0.12422 0.18735 0.46039 -0.05700
C 	C 	0.10701 0.14919 0.45873 0.00100
C 	C 	0.11880 0.12407 0.50006 -0.03600
C 	C 	0.14544 0.13791 0.54426 -0.00300
H 	H 	0.18467 0.18619 0.57953 0.05300
H 	H 	0.11619 0.20630 0.42769 0.05300
H 	H 	0.08536 0.13904 0.42495 0.04900
H 	H 	0.15381 0.11889 0.57680 0.04000
C 	C 	0.36997 0.45025 0.16601 0.02500
C 	C 	0.41875 0.46677 0.16371 -0.08800
C 	C 	0.44650 0.47478 0.21002 0.02100
C 	C 	0.42625 0.46549 0.25798 -0.06800
C 	C 	0.37815 0.44806 0.26015 0.04800
C 	C 	0.34981 0.44087 0.21405 -0.06700
H 	H 	0.34812 0.44394 0.13064 0.04000
H 	H 	0.48382 0.48811 0.20884 0.03400
H 	H 	0.44834 0.47117 0.29340 0.05400
H 	H 	0.31261 0.42739 0.21543 0.05600
C 	C 	0.41915 0.49911 0.80283 0.02000
C 	C 	0.39588 0.48587 0.84790 -0.09000
C 	C 	0.35514 0.45964 0.84348 0.02600
C 	C 	0.33808 0.44667 0.79449 -0.07000
C 	C 	0.36175 0.45967 0.74957 0.04800
C 	C 	0.40229 0.48597 0.75399 -0.06500
H 	H 	0.45093 0.51904 0.80569 0.03500
H 	H 	0.33661 0.44940 0.87786 0.04000
H 	H 	0.30669 0.42640 0.79144 0.05500
H 	H 	0.42115 0.49585 0.71961 0.05700
C 	C 	0.67545 0.58999 0.18538 0.01600
C 	C 	0.64405 0.55764 0.19226 -0.07600
C 	C 	0.63231 0.54592 0.24267 0.01800
C 	C 	0.64988 0.56733 0.28557 -0.06300
C 	C 	0.67881 0.60088 0.27840 0.04600
C 	C 	0.69259 0.61157 0.22827 -0.06600
H 	H 	0.68492 0.59929 0.14671 0.04400
H 	H 	0.60881 0.52067 0.24854 0.04000
H 	H 	0.63985 0.55848 0.32428 0.05600
H 	H 	0.71523 0.63727 0.22242 0.05400
C 	C 	0.64513 0.57542 0.78539 0.01900
C 	C 	0.60171 0.58744 0.81144 -0.07800
C 	C 	0.57726 0.62199 0.79685 0.02000
C 	C 	0.59636 0.64450 0.75686 -0.06800
C 	C 	0.63979 0.63248 0.73086 0.04700
C 	C 	0.66383 0.59767 0.74498 -0.06300
H 	H 	0.66410 0.54868 0.79614 0.04200
H 	H 	0.54392 0.63168 0.81696 0.03800
H 	H 	0.57740 0.67122 0.74601 0.05400
H 	H 	0.69681 0.58780 0.72444 0.05800
C 	C 	0.21089 0.98617 0.33921 0.02200
C 	C 	0.16879 0.96489 0.35568 -0.08800
C 	C 	0.14872 0.93519 0.32408 0.02300
C 	C 	0.17018 0.92711 0.27629 -0.07000
C 	C 	0.21167 0.94883 0.25942 0.04800
C 	C 	0.23202 0.97835 0.29113 -0.06600
H 	H 	0.22644 0.00937 0.36304 0.03900
H 	H 	0.11643 0.91842 0.33649 0.04100
H 	H 	0.15447 0.90406 0.25228 0.05400
H 	H 	0.26389 0.99540 0.27834 0.05800
C 	C 	0.21854 0.93624 0.72770 -0.06900
C 	C 	0.22743 0.96384 0.76678 0.04800
C 	C 	0.21875 0.00300 0.75607 -0.06700
C 	C 	0.19990 0.01442 0.70708 0.02100
C 	C 	0.18942 0.98672 0.66829 -0.08800
C 	C 	0.19960 0.94759 0.67868 0.02100
H 	H 	0.22530 0.90593 0.73564 0.05500
H 	H 	0.22596 0.02452 0.78591 0.05600
H 	H 	0.19291 0.04475 0.69952 0.04100
H 	H 	0.19160 0.92586 0.64930 0.04100
C 	C 	0.41507 0.67616 0.97164 -0.05100
C 	C 	0.42161 0.70037 0.01498 0.03700
C 	C 	0.44798 0.68681 0.05956 -0.05700
C 	C 	0.46636 0.64895 0.06132 0.00100
C 	C 	0.45826 0.62435 0.01861 -0.03800
C 	C 	0.43351 0.63833 0.97340 -0.00100
H 	H 	0.39486 0.68643 0.93700 0.05400
H 	H 	0.45358 0.70543 0.09304 0.05200
H 	H 	0.48627 0.63868 0.09609 0.04900
H 	H 	0.42774 0.61968 0.93998 0.03900
C 	C 	0.93733 0.07284 0.22951 -0.06300
C 	C 	0.90807 0.10603 0.23813 0.04500
C 	C 	0.89448 0.11555 0.28873 -0.06600
C 	C 	0.91143 0.09285 0.33062 0.01600
C 	C 	0.94244 0.06049 0.32229 -0.07500
C 	C 	0.95471 0.05029 0.27144 0.01700
H 	H 	0.94729 0.06492 0.19042 0.05600
H 	H 	0.87169 0.14100 0.29570 0.05400
H 	H 	0.90177 0.10110 0.36966 0.04500
H 	H 	0.97806 0.02514 0.26444 0.04100
C 	C 	0.89662 0.11000 0.74385 -0.06600
C 	C 	0.92877 0.12699 0.78181 0.04600
C 	C 	0.98185 0.12466 0.77747 -0.06200
C 	C 	0.00266 0.10561 0.73524 0.01600
C 	C 	0.97048 0.08864 0.69702 -0.07400
C 	C 	0.91731 0.09088 0.70168 0.01700
H 	H 	0.85558 0.11147 0.74716 0.05400
H 	H 	0.00693 0.13749 0.80690 0.05600
H 	H 	0.04371 0.10436 0.73205 0.04200
H 	H 	0.89201 0.07767 0.67278 0.04500
C 	C 	0.64062 0.38347 0.95371 -0.05200
C 	C 	0.66909 0.37747 0.00001 0.03700
C 	C 	0.66325 0.40266 0.04205 -0.05000
C 	C 	0.62849 0.43319 0.03813 -0.00200
C 	C 	0.59967 0.43895 0.99201 -0.02700
C 	C 	0.60592 0.41404 0.94978 0.00100
H 	H 	0.64482 0.36411 0.92109 0.05200
H 	H 	0.68518 0.39829 0.07791 0.05500
H 	H 	0.62346 0.45197 0.07119 0.03700
H 	H 	0.58339 0.41795 0.91422 0.05100
