data_crystal

_cell_length_a 26.22164
_cell_length_b 26.54834
_cell_length_c 26.64973
_cell_angle_alpha 95.48741
_cell_angle_beta  95.48679
_cell_angle_gamma 125.85328

_symmetry_space_group_name_	'P 1'
_symmetry_space_group_name_H-M	'P 1'

loop_
_symmetry_equiv_pos_as_xyz
  x,y,z

loop_
_atom_site_label
_atom_site_type_symbol
_atom_site_fract_x
_atom_site_fract_y
_atom_site_fract_z
_atom_site_charge
C 	C 	0.98604 0.04934 0.98465 0.08700
C 	C 	0.94848 0.98393 0.98347 -0.10500
C 	C 	0.97573 0.95182 0.97899 0.08800
C 	C 	0.04070 0.98518 0.97636 -0.11100
C 	C 	0.07841 0.05051 0.97735 0.08300
C 	C 	0.05090 0.08253 0.98113 -0.09700
H 	H 	0.89821 0.95813 0.98578 0.06900
H 	H 	0.06194 0.96038 0.97372 0.06000
H 	H 	0.07985 0.13302 0.98163 0.08000
C 	C 	0.91581 0.98073 0.44568 0.06100
C 	C 	0.98156 0.01741 0.44470 -0.08000
C 	C 	0.01455 0.99098 0.44944 0.05500
C 	C 	0.98165 0.92757 0.45449 -0.07200
C 	C 	0.91612 0.89081 0.45628 0.06700
C 	C 	0.88308 0.91739 0.45161 -0.08600
H 	H 	0.00710 0.06657 0.44091 0.05600
H 	H 	0.00713 0.90699 0.45749 0.06900
H 	H 	0.83239 0.88911 0.45285 0.06700
Cu	Cu	0.66476 0.26814 0.01031 0.93000
Cu	Cu	0.70370 0.25886 0.89821 0.87300
Cu	Cu	0.69628 0.36214 0.93863 0.89900
Cu	Cu	0.67194 0.38934 0.04327 0.89800
C 	C 	0.67579 0.31101 0.11656 0.28800
O 	O 	0.57239 0.23039 0.01348 -0.35500
C 	C 	0.66563 0.30969 0.82716 0.28400
O 	O 	0.71708 0.36565 0.01034 -0.63900
O 	O 	0.65047 0.26936 0.93626 -0.64100
O 	O 	0.70317 0.22196 0.00799 -0.35300
O 	O 	0.76775 0.27981 0.95376 -0.44100
O 	O 	0.67950 0.36170 0.10922 -0.37700
O 	O 	0.74572 0.45302 0.94611 -0.36900
C 	C 	0.74135 0.48917 0.98026 0.31200
C 	C 	0.54662 0.25794 0.99912 0.30300
O 	O 	0.58319 0.31596 0.99083 -0.39200
O 	O 	0.69982 0.46478 0.01147 -0.39100
O 	O 	0.69000 0.28310 0.08304 -0.35100
C 	C 	0.75363 0.24203 0.98689 0.31000
O 	O 	0.68984 0.35958 0.86372 -0.37800
O 	O 	0.65942 0.25889 0.83721 -0.41000
H 	H 	0.76362 0.39223 0.02436 0.17300
H 	H 	0.60497 0.24355 0.91907 0.17900
Cu	Cu	0.71508 0.31839 0.43474 0.92900
Cu	Cu	0.71451 0.26751 0.54251 0.87300
Cu	Cu	0.61423 0.28100 0.50203 0.89900
Cu	Cu	0.59685 0.31885 0.40289 0.90000
C 	C 	0.66662 0.30279 0.32832 0.28400
O 	O 	0.75363 0.41130 0.43766 -0.36100
C 	C 	0.66094 0.30249 0.61347 0.28600
O 	O 	0.61562 0.26759 0.43040 -0.63900
O 	O 	0.70852 0.32512 0.50810 -0.64000
O 	O 	0.76030 0.27843 0.43578 -0.35600
O 	O 	0.69556 0.20861 0.48412 -0.44100
O 	O 	0.64134 0.33125 0.34329 -0.37300
O 	O 	0.52197 0.23355 0.49110 -0.37700
C 	C 	0.48708 0.23864 0.45572 0.31700
C 	C 	0.72687 0.43590 0.45732 0.30200
O 	O 	0.66722 0.39842 0.46355 -0.37700
O 	O 	0.51374 0.28220 0.42669 -0.38500
O 	O 	0.70454 0.29897 0.36157 -0.35200
C 	C 	0.73645 0.22539 0.45296 0.30800
O 	O 	0.61177 0.27969 0.57589 -0.38000
O 	O 	0.71195 0.30680 0.60495 -0.41100
H 	H 	0.58777 0.22262 0.41308 0.17400
H 	H 	0.73476 0.36881 0.52815 0.17800
C 	C 	0.65566 0.31501 0.77300 -0.06600
C 	C 	0.70472 0.36782 0.75536 -0.01400
C 	C 	0.70397 0.36675 0.70261 0.00400
C 	C 	0.65391 0.31221 0.66707 -0.06700
C 	C 	0.60121 0.26266 0.68459 -0.01200
C 	C 	0.60170 0.26392 0.73735 0.00300
H 	H 	0.74506 0.40841 0.78266 0.04900
H 	H 	0.56131 0.22172 0.65727 0.04500
C 	C 	0.54672 0.21274 0.75458 0.07800
C 	C 	0.75480 0.42165 0.68522 0.07700
N 	N 	0.50267 0.17175 0.76839 -0.11500
N 	N 	0.79548 0.46562 0.67126 -0.11800
C 	C 	0.67255 0.29649 0.16858 -0.05700
C 	C 	0.61328 0.26350 0.18444 -0.00900
C 	C 	0.61026 0.26049 0.23637 0.00400
C 	C 	0.66726 0.29177 0.27309 -0.05800
C 	C 	0.72608 0.32008 0.25659 -0.00700
C 	C 	0.72899 0.32261 0.20456 0.00800
H 	H 	0.56970 0.24204 0.15660 0.04000
H 	H 	0.76992 0.34292 0.28454 0.05600
C 	C 	0.79031 0.35403 0.18866 0.09000
C 	C 	0.54854 0.22540 0.25172 0.07100
N 	N 	0.83941 0.37918 0.17591 -0.10900
N 	N 	0.49912 0.19730 0.26402 -0.11800
C 	C 	0.87713 0.74664 0.50812 -0.09500
C 	C 	0.83145 0.69793 0.46712 -0.01000
C 	C 	0.80864 0.71216 0.42490 0.14400
C 	C 	0.83410 0.77516 0.42275 -0.07900
C 	C 	0.88217 0.82421 0.46258 -0.04400
C 	C 	0.90193 0.80952 0.50629 0.15200
C 	C 	0.80908 0.63233 0.46774 0.01000
O 	O 	0.76066 0.66451 0.38626 -0.27700
H 	H 	0.81777 0.78598 0.38943 0.06500
O 	O 	0.94721 0.85679 0.54639 -0.27800
H 	H 	0.89413 0.73587 0.54108 0.07000
C 	C 	0.82846 0.60428 0.43496 0.11800
C 	C 	0.80339 0.54070 0.43308 -0.03500
C 	C 	0.76018 0.50506 0.46482 -0.12200
C 	C 	0.74495 0.53484 0.50062 0.19100
C 	C 	0.76852 0.59788 0.50128 -0.11400
O 	O 	0.87035 0.63837 0.40355 -0.27700
H 	H 	0.81628 0.51873 0.40595 0.06600
O 	O 	0.70623 0.50215 0.53433 -0.28600
H 	H 	0.75494 0.61984 0.52769 0.07800
H 	H 	0.92268 0.86206 0.56970 0.15200
H 	H 	0.91357 0.65829 0.42390 0.14800
H 	H 	0.73570 0.50912 0.56505 0.15000
H 	H 	0.78278 0.65994 0.36002 0.15900
C 	C 	0.83816 0.05865 0.48251 -0.09500
C 	C 	0.82901 0.07580 0.43619 -0.01200
C 	C 	0.84453 0.05803 0.39212 0.14200
C 	C 	0.87104 0.02515 0.39504 -0.08000
C 	C 	0.88171 0.00936 0.44170 -0.04200
C 	C 	0.86481 0.02593 0.48550 0.15000
C 	C 	0.80465 0.11375 0.43436 0.01100
O 	O 	0.83583 0.07457 0.34661 -0.27400
H 	H 	0.88422 0.01279 0.36124 0.06700
O 	O 	0.87428 0.01016 0.53121 -0.28300
H 	H 	0.82562 0.07165 0.51643 0.06400
C 	C 	0.73858 0.08429 0.42870 0.11300
C 	C 	0.71630 0.12107 0.43167 -0.03200
C 	C 	0.75968 0.18741 0.44116 -0.12700
C 	C 	0.82579 0.21680 0.44525 0.18900
C 	C 	0.84788 0.17986 0.44137 -0.11200
O 	O 	0.69565 0.01955 0.41979 -0.27000
H 	H 	0.66534 0.09801 0.42787 0.05700
O 	O 	0.86894 0.28152 0.45385 -0.27900
H 	H 	0.89882 0.20274 0.44532 0.07900
H 	H 	0.91809 0.04650 0.54892 0.14800
H 	H 	0.68975 0.00820 0.45426 0.14400
H 	H 	0.88135 0.29498 0.49173 0.13600
H 	H 	0.79179 0.03885 0.32884 0.15800
C 	C 	0.19289 0.08715 0.49778 -0.09400
C 	C 	0.21620 0.09967 0.45185 -0.01200
C 	C 	0.17333 0.07817 0.40521 0.14400
C 	C 	0.10746 0.04332 0.40470 -0.08200
C 	C 	0.08410 0.03023 0.45058 -0.04000
C 	C 	0.12711 0.05289 0.49734 0.15000
C 	C 	0.28554 0.13530 0.45272 0.01300
O 	O 	0.19555 0.08935 0.35996 -0.27600
H 	H 	0.07449 0.02592 0.36859 0.06600
O 	O 	0.10474 0.04006 0.54242 -0.27600
H 	H 	0.22580 0.10391 0.53382 0.06900
C 	C 	0.32358 0.20071 0.45310 0.11500
C 	C 	0.38933 0.23415 0.45377 -0.02900
C 	C 	0.41779 0.20290 0.45501 -0.12100
C 	C 	0.37974 0.13750 0.45528 0.19600
C 	C 	0.31378 0.10394 0.45382 -0.11400
O 	O 	0.29633 0.23175 0.45168 -0.27500
H 	H 	0.41830 0.28452 0.45386 0.06200
O 	O 	0.40636 0.10582 0.45462 -0.29300
H 	H 	0.28457 0.05350 0.45345 0.07900
H 	H 	0.10383 0.07571 0.55556 0.14700
H 	H 	0.29865 0.24620 0.48812 0.14600
H 	H 	0.41807 0.10593 0.49117 0.15400
H 	H 	0.20382 0.12994 0.35507 0.15700
C 	C 	0.87076 0.65946 0.97344 -0.11700
C 	C 	0.83675 0.68500 0.97454 0.01000
C 	C 	0.77104 0.64581 0.97604 0.12200
C 	C 	0.73984 0.58156 0.97683 -0.03200
C 	C 	0.77403 0.55609 0.97672 -0.12100
C 	C 	0.83979 0.59531 0.97490 0.19300
C 	C 	0.87045 0.75313 0.97557 -0.00900
O 	O 	0.73694 0.66998 0.97556 -0.27100
H 	H 	0.68904 0.55151 0.97761 0.06200
O 	O 	0.87379 0.57105 0.97450 -0.28900
H 	H 	0.92144 0.68956 0.97222 0.07300
C 	C 	0.89244 0.79504 0.02249 0.13500
C 	C 	0.92480 0.85978 0.02318 -0.07400
C 	C 	0.93641 0.88316 0.97735 -0.05500
C 	C 	0.91425 0.84121 0.93041 0.15600
C 	C 	0.88099 0.77634 0.92964 -0.09400
O 	O 	0.88141 0.77262 0.06757 -0.28000
H 	H 	0.94192 0.89197 0.05943 0.06300
O 	O 	0.92403 0.86345 0.88522 -0.28100
H 	H 	0.86375 0.74412 0.89340 0.07500
H 	H 	0.89060 0.57646 0.01112 0.14500
H 	H 	0.91901 0.77380 0.08012 0.14600
H 	H 	0.96532 0.87265 0.87951 0.14700
H 	H 	0.73931 0.68376 0.01219 0.15600
C 	C 	0.91133 0.13043 0.95053 -0.09500
C 	C 	0.89648 0.14131 0.99763 -0.01200
C 	C 	0.91337 0.12419 0.04101 0.14200
C 	C 	0.94341 0.09483 0.03671 -0.07300
C 	C 	0.95728 0.08299 0.98938 -0.05200
C 	C 	0.94130 0.10105 0.94620 0.15500
C 	C 	0.86098 0.16831 0.00083 0.01500
O 	O 	0.89886 0.13441 0.08722 -0.27300
H 	H 	0.95552 0.08086 0.07005 0.06800
O 	O 	0.95541 0.09046 0.89989 -0.28300
H 	H 	0.89872 0.14391 0.91708 0.06500
C 	C 	0.89271 0.23353 0.00316 0.11200
C 	C 	0.85763 0.25786 0.00127 -0.02800
C 	C 	0.79071 0.21731 0.99629 -0.13000
C 	C 	0.75921 0.15218 0.99538 0.19100
C 	C 	0.79453 0.12813 0.99815 -0.11500
O 	O 	0.95808 0.27365 0.00791 -0.26800
H 	H 	0.88232 0.30812 0.00263 0.05700
O 	O 	0.69390 0.11183 0.99096 -0.27700
H 	H 	0.76997 0.07788 0.99667 0.08100
H 	H 	0.91722 0.04784 0.88230 0.15100
H 	H 	0.96600 0.27598 0.97225 0.14400
H 	H 	0.67667 0.09684 0.95354 0.13600
H 	H 	0.93668 0.17723 0.10479 0.15800
C 	C 	0.37232 0.14684 0.01117 -0.11700
C 	C 	0.34459 0.16603 0.97807 0.00800
C 	C 	0.38225 0.21199 0.94910 0.12300
C 	C 	0.44766 0.23979 0.95452 -0.03600
C 	C 	0.47628 0.22269 0.98934 -0.12400
C 	C 	0.43800 0.17550 0.01753 0.19200
C 	C 	0.27687 0.14021 0.97589 -0.00800
O 	O 	0.35590 0.23209 0.91739 -0.27000
H 	H 	0.47639 0.27551 0.93227 0.06000
O 	O 	0.46473 0.15796 0.05175 -0.28000
H 	H 	0.34323 0.11091 0.03316 0.07400
C 	C 	0.23004 0.09535 0.93326 0.13700
C 	C 	0.16554 0.06899 0.93269 -0.07400
C 	C 	0.14704 0.08534 0.97528 -0.05300
C 	C 	0.19399 0.13045 0.01784 0.15600
C 	C 	0.25868 0.15834 0.01766 -0.09400
O 	O 	0.24727 0.07730 0.89213 -0.27900
H 	H 	0.12963 0.03436 0.89977 0.06500
O 	O 	0.17667 0.14704 0.05971 -0.28300
H 	H 	0.29465 0.19303 0.05052 0.07200
H 	H 	0.47630 0.18549 0.08517 0.14800
H 	H 	0.24560 0.04061 0.89991 0.14700
H 	H 	0.16961 0.11710 0.08270 0.14800
H 	H 	0.34227 0.20520 0.88317 0.15900
