data_crystal

_cell_length_a 30.18387
_cell_length_b 30.35943
_cell_length_c 26.48053
_cell_angle_alpha 95.51478
_cell_angle_beta  95.50967
_cell_angle_gamma 125.59165

_symmetry_space_group_name_	'P 1'
_symmetry_space_group_name_H-M	'P 1'

loop_
_symmetry_equiv_pos_as_xyz
  x,y,z

loop_
_atom_site_label
_atom_site_type_symbol
_atom_site_fract_x
_atom_site_fract_y
_atom_site_fract_z
_atom_site_charge
C 	C 	0.03022 0.01128 0.45365 0.11700
C 	C 	0.91422 0.02295 0.43359 -0.02700
C 	C 	0.86569 0.00229 0.45393 -0.01800
C 	C 	0.83648 0.02451 0.44667 -0.05900
H 	H 	0.79921 0.00834 0.46265 0.04300
C 	C 	0.11742 0.02217 0.44328 -0.01800
C 	C 	0.97653 0.03054 0.97875 0.11200
C 	C 	0.05267 0.02808 0.97421 0.12000
N 	N 	0.00142 0.03233 0.44546 -0.13900
H 	H 	0.19486 0.03547 0.43849 0.04600
H 	H 	0.12292 0.01943 0.03588 0.03900
C 	C 	0.90397 0.04064 0.00204 -0.00400
C 	C 	0.09103 0.04627 0.45657 -0.02200
H 	H 	0.84137 0.05085 0.01656 0.04500
C 	C 	0.14189 0.04445 0.00710 -0.00100
H 	H 	0.88379 0.00202 0.01584 0.04100
C 	C 	0.17499 0.05485 0.44748 -0.05500
H 	H 	0.21710 0.05182 0.02548 0.04600
N 	N 	0.03135 0.05700 0.97737 -0.13800
C 	C 	0.11217 0.05644 0.97461 -0.03700
C 	C 	0.94540 0.99977 0.44169 0.12000
N 	N 	0.01924 0.97283 0.97222 -0.13700
C 	C 	0.96468 0.94622 0.97387 0.11400
N 	N 	0.94333 0.97510 0.97699 -0.14000
N 	N 	0.91818 0.94588 0.44573 -0.14000
C 	C 	0.94683 0.92471 0.45401 0.11600
N 	N 	0.00282 0.95760 0.45827 -0.13600
Cu	Cu	0.64741 0.25521 0.99752 0.92300
Cu	Cu	0.70428 0.26377 0.89566 0.87200
Cu	Cu	0.68490 0.34565 0.93318 0.89600
Cu	Cu	0.64024 0.35330 0.02752 0.90000
C 	C 	0.65125 0.29210 0.10309 0.30500
O 	O 	0.56475 0.21919 0.98764 -0.36500
C 	C 	0.67679 0.31094 0.82217 0.30600
O 	O 	0.69008 0.34105 0.00491 -0.63100
O 	O 	0.64834 0.26458 0.92459 -0.64200
O 	O 	0.68457 0.21825 0.00006 -0.34900
O 	O 	0.75105 0.27842 0.95798 -0.43200
O 	O 	0.62521 0.31231 0.08593 -0.37900
O 	O 	0.72399 0.42485 0.94690 -0.37900
C 	C 	0.71476 0.45193 0.98120 0.28000
C 	C 	0.54371 0.24221 0.96637 0.28500
O 	O 	0.57677 0.29405 0.96185 -0.39400
O 	O 	0.67260 0.42576 0.00565 -0.37900
O 	O 	0.65766 0.26080 0.07112 -0.34300
C 	C 	0.73377 0.24139 0.98770 0.25800
O 	O 	0.69308 0.35165 0.86047 -0.38400
O 	O 	0.67505 0.26790 0.83061 -0.40400
H 	H 	0.72827 0.36534 0.02541 0.17700
H 	H 	0.61154 0.24181 0.90147 0.18300
Cu	Cu	0.72534 0.33484 0.42826 0.92900
Cu	Cu	0.72392 0.28626 0.53436 0.87300
Cu	Cu	0.63905 0.30277 0.49752 0.89800
Cu	Cu	0.62555 0.34117 0.40035 0.90000
C 	C 	0.67991 0.32168 0.32287 0.30400
O 	O 	0.76126 0.41649 0.43348 -0.36100
C 	C 	0.67901 0.31600 0.60872 0.30500
O 	O 	0.63960 0.29342 0.42508 -0.63800
O 	O 	0.72038 0.33904 0.50252 -0.64000
O 	O 	0.76345 0.29878 0.42632 -0.36900
O 	O 	0.70731 0.23670 0.47380 -0.43800
O 	O 	0.66193 0.35011 0.33917 -0.37000
O 	O 	0.55935 0.26369 0.48718 -0.37700
C 	C 	0.53023 0.26990 0.45190 0.29200
C 	C 	0.74044 0.43957 0.45556 0.28500
O 	O 	0.68871 0.40858 0.46201 -0.38700
O 	O 	0.55473 0.31084 0.42608 -0.38500
O 	O 	0.71525 0.31969 0.35429 -0.35500
C 	C 	0.74322 0.25218 0.44281 0.29100
O 	O 	0.63682 0.29871 0.57140 -0.38400
O 	O 	0.72254 0.31891 0.59886 -0.40300
H 	H 	0.61441 0.25466 0.40649 0.17500
H 	H 	0.74405 0.37670 0.52367 0.18100
C 	C 	0.71525 0.36500 0.75295 -0.04000
C 	C 	0.67090 0.31858 0.76850 -0.08900
C 	C 	0.62454 0.27628 0.73114 0.12300
C 	C 	0.62563 0.27784 0.67859 -0.04000
C 	C 	0.67255 0.32155 0.66292 -0.08800
C 	C 	0.71615 0.36678 0.70039 0.12300
Br	Br	0.77674 0.43158 0.68054 -0.25500
H 	H 	0.75017 0.39865 0.78161 0.06300
H 	H 	0.59101 0.24382 0.64994 0.06400
Br	Br	0.55928 0.21636 0.75120 -0.25800
C 	C 	0.71891 0.32842 0.24293 -0.03300
C 	C 	0.67240 0.30517 0.26681 -0.08400
C 	C 	0.61882 0.27142 0.23618 0.12300
C 	C 	0.61226 0.26495 0.18236 -0.03500
C 	C 	0.65878 0.29143 0.15861 -0.08200
C 	C 	0.71230 0.32166 0.18899 0.12000
Br	Br	0.77690 0.35623 0.15767 -0.25300
H 	H 	0.76026 0.35372 0.26629 0.07000
H 	H 	0.57093 0.24038 0.15900 0.06800
Br	Br	0.55409 0.23361 0.26724 -0.27800
C 	C 	0.77325 0.50045 0.46815 -0.08800
C 	C 	0.82544 0.53388 0.45395 0.02000
C 	C 	0.85369 0.59098 0.46073 -0.07400
C 	C 	0.83006 0.61530 0.48141 0.04800
C 	C 	0.77941 0.58245 0.49825 -0.07300
C 	C 	0.75108 0.52532 0.49156 0.01800
C 	C 	0.85894 0.67533 0.48568 -0.05400
C 	C 	0.83216 0.69525 0.46715 -0.04700
C 	C 	0.86254 0.75448 0.46506 0.03500
C 	C 	0.84166 0.78297 0.48230 -0.05800
C 	C 	0.86901 0.83847 0.47863 -0.01400
C 	C 	0.91720 0.86583 0.45710 -0.02400
C 	C 	0.93748 0.83693 0.43900 -0.01400
C 	C 	0.91018 0.78154 0.44275 -0.05800
H 	H 	0.84367 0.51563 0.43671 0.03900
H 	H 	0.89338 0.61618 0.44875 0.05000
H 	H 	0.76182 0.60109 0.51617 0.05000
H 	H 	0.71162 0.50043 0.50397 0.03600
H 	H 	0.90350 0.70306 0.49982 0.04500
H 	H 	0.78753 0.66775 0.45349 0.04300
H 	H 	0.80445 0.76221 0.49883 0.04500
H 	H 	0.85299 0.86026 0.49293 0.03900
H 	H 	0.97402 0.85719 0.42147 0.03900
H 	H 	0.92563 0.75946 0.42770 0.04500
C 	C 	0.85572 0.06804 0.41960 0.03400
C 	C 	0.90365 0.08811 0.39841 -0.05800
C 	C 	0.93288 0.06586 0.40556 -0.01500
C 	C 	0.82444 0.09122 0.41232 -0.04700
C 	C 	0.85014 0.14590 0.42411 -0.05500
C 	C 	0.81826 0.16889 0.42310 0.04800
C 	C 	0.83786 0.21685 0.40283 -0.07600
C 	C 	0.81194 0.24275 0.40714 0.02100
C 	C 	0.76642 0.22126 0.43243 -0.09700
C 	C 	0.74565 0.17209 0.45112 0.01600
C 	C 	0.77177 0.14644 0.44701 -0.07700
H 	H 	0.85090 0.96940 0.47580 0.04100
H 	H 	0.91800 0.12063 0.37613 0.04500
H 	H 	0.96965 0.08158 0.38886 0.03900
H 	H 	0.77952 0.06311 0.40117 0.04300
H 	H 	0.89512 0.17406 0.43457 0.04400
H 	H 	0.87379 0.23463 0.38448 0.05100
H 	H 	0.82816 0.28020 0.39193 0.04100
H 	H 	0.71018 0.15446 0.47009 0.02700
H 	H 	0.75689 0.11011 0.46384 0.04700
C 	C 	0.20686 0.11225 0.46392 0.03400
C 	C 	0.18066 0.13636 0.47743 -0.05700
C 	C 	0.12304 0.10363 0.47365 -0.01500
C 	C 	0.26805 0.14702 0.46984 -0.04600
C 	C 	0.29259 0.13989 0.43341 -0.05400
C 	C 	0.35370 0.17467 0.43914 0.04900
C 	C 	0.37832 0.19589 0.39682 -0.07300
C 	C 	0.43584 0.22681 0.40099 0.02000
C 	C 	0.46940 0.23654 0.44752 -0.08600
C 	C 	0.44466 0.21461 0.48975 0.02000
C 	C 	0.38709 0.18358 0.48549 -0.07300
H 	H 	0.09337 0.97807 0.42980 0.04400
H 	H 	0.20494 0.18049 0.49090 0.04600
H 	H 	0.10346 0.12279 0.48466 0.04100
H 	H 	0.29313 0.18041 0.50307 0.04400
H 	H 	0.26741 0.11025 0.39774 0.04600
H 	H 	0.35286 0.18844 0.36064 0.05200
H 	H 	0.45426 0.24280 0.36790 0.03700
H 	H 	0.46995 0.22176 0.52590 0.04200
H 	H 	0.36842 0.16600 0.51797 0.05200
C 	C 	0.92921 0.88629 0.97361 -0.02400
C 	C 	0.95302 0.86103 0.99152 -0.02200
C 	C 	0.92042 0.80401 0.98842 -0.07400
C 	C 	0.86318 0.77154 0.96878 0.04600
C 	C 	0.83922 0.79666 0.95113 -0.06400
C 	C 	0.87200 0.85378 0.95363 -0.01300
C 	C 	0.82876 0.71084 0.96356 -0.07600
C 	C 	0.83526 0.68727 0.00123 -0.01400
C 	C 	0.80305 0.62670 0.99507 0.01300
C 	C 	0.78037 0.60096 0.03641 -0.05300
C 	C 	0.75210 0.54408 0.03204 0.02500
C 	C 	0.74645 0.51229 0.98626 -0.09400
C 	C 	0.77004 0.53822 0.94512 0.01500
C 	C 	0.79848 0.59519 0.94962 -0.06300
H 	H 	0.99695 0.88553 0.00743 0.05000
H 	H 	0.93981 0.78498 0.00059 0.05800
H 	H 	0.79525 0.77191 0.93527 0.04600
H 	H 	0.85308 0.87251 0.93920 0.03900
H 	H 	0.79682 0.68524 0.92926 0.05000
H 	H 	0.86287 0.71275 0.03782 0.03800
H 	H 	0.78462 0.62507 0.07198 0.04600
H 	H 	0.73481 0.52476 0.06434 0.03100
H 	H 	0.76605 0.51430 0.90957 0.04200
H 	H 	0.81742 0.61486 0.91804 0.04800
C 	C 	0.76700 0.22154 0.00232 -0.04700
C 	C 	0.74207 0.17042 0.01820 -0.00100
C 	C 	0.77186 0.14882 0.02607 -0.05400
C 	C 	0.82655 0.17775 0.01770 0.02300
C 	C 	0.85249 0.23012 0.00459 -0.02500
C 	C 	0.82291 0.25191 0.99695 -0.03400
C 	C 	0.85636 0.15286 0.02245 -0.02900
C 	C 	0.87921 0.14737 0.98339 -0.06600
C 	C 	0.90617 0.11938 0.98619 0.02500
C 	C 	0.95539 0.14086 0.96710 -0.05700
C 	C 	0.97880 0.11240 0.96531 -0.02200
C 	C 	0.95307 0.06189 0.98249 -0.03400
C 	C 	0.88034 0.06886 0.00330 -0.04700
H 	H 	0.69926 0.14674 0.02315 0.04700
H 	H 	0.75189 0.10888 0.03726 0.04700
H 	H 	0.89536 0.25366 0.99979 0.02900
H 	H 	0.84325 0.29204 0.98615 0.04200
H 	H 	0.85671 0.13597 0.05674 0.04100
H 	H 	0.87921 0.16485 0.94942 0.04200
H 	H 	0.97522 0.17938 0.95310 0.04100
H 	H 	0.01633 0.12916 0.94968 0.04400
C 	C 	0.48322 0.21359 0.95676 -0.08900
C 	C 	0.45914 0.22833 0.92056 0.01900
C 	C 	0.40391 0.20887 0.91788 -0.07600
C 	C 	0.37197 0.17388 0.95080 0.05200
C 	C 	0.39538 0.15739 0.98563 -0.08500
C 	C 	0.45054 0.17674 0.98825 0.00900
C 	C 	0.31596 0.15899 0.95215 -0.05900
C 	C 	0.27320 0.10700 0.95327 -0.04300
C 	C 	0.21965 0.09362 0.96305 0.02200
C 	C 	0.19519 0.06268 0.00114 -0.04600
C 	C 	0.13746 0.08942 0.93790 -0.01200
C 	C 	0.19092 0.10769 0.93189 -0.05600
H 	H 	0.48367 0.25614 0.89554 0.03600
H 	H 	0.38626 0.22181 0.89088 0.05100
H 	H 	0.37151 0.13122 0.01198 0.06300
H 	H 	0.46856 0.16518 0.01650 0.05100
H 	H 	0.30981 0.19093 0.95265 0.04500
H 	H 	0.27926 0.07496 0.95174 0.04000
H 	H 	0.11483 0.09878 0.91249 0.03800
H 	H 	0.20917 0.13112 0.90196 0.04500
