data_crystal

_cell_length_a 16.85243
_cell_length_b 15.31433
_cell_length_c 36.50703
_cell_angle_alpha 89.87183
_cell_angle_beta  89.87494
_cell_angle_gamma 119.41162

_symmetry_space_group_name_	'P 1'
_symmetry_space_group_name_H-M	'P 1'

loop_
_symmetry_equiv_pos_as_xyz
  x,y,z

loop_
_atom_site_label
_atom_site_type_symbol
_atom_site_fract_x
_atom_site_fract_y
_atom_site_fract_z
_atom_site_charge
O 	O 	0.03655 0.04411 0.76177 -0.71700
H 	H 	0.04517 0.07545 0.78605 0.18000
O 	O 	0.00281 0.11397 0.18263 -0.33700
O 	O 	0.01582 0.86653 0.30022 -0.35300
Br	Br	0.00473 0.23203 0.04207 -0.13200
C 	C 	0.03176 0.48894 0.96644 0.13000
Br	Br	0.05758 0.44806 0.92027 -0.13800
C 	C 	0.03941 0.13408 0.10244 0.00300
H 	H 	0.03957 0.92041 0.88702 0.09800
O 	O 	0.05951 0.23431 0.76718 -0.33900
Br	Br	0.11308 0.38104 0.82554 -0.14800
Br	Br	0.03072 0.75122 0.43828 -0.14900
Br	Br	0.01259 0.36976 0.23205 -0.17100
Br	Br	0.07328 0.21492 0.61590 -0.14500
C 	C 	0.04683 0.49079 0.52020 0.11900
Ni	Ni	0.10365 0.16295 0.73400 1.12600
C 	C 	0.06150 0.48300 0.48256 -0.06900
Ni	Ni	0.08438 0.95656 0.76819 1.12500
Br	Br	0.12848 0.48563 0.55572 -0.12500
C 	C 	0.08268 0.60213 0.01891 -0.07000
C 	C 	0.23544 0.14811 0.79144 0.30500
C 	C 	0.19867 0.07139 0.70220 0.32600
O 	O 	0.16968 0.06298 0.80384 -0.36500
O 	O 	0.22189 0.20133 0.76484 -0.34400
O 	O 	0.19654 0.01800 0.73098 -0.35400
O 	O 	0.13093 0.08641 0.69678 -0.37100
C 	C 	0.24174 0.83791 0.41308 0.30300
C 	C 	0.15546 0.54323 0.46946 0.31700
C 	C 	0.23066 0.56804 0.34233 0.30700
Ni	Ni	0.32576 0.73678 0.46524 1.12100
Ni	Ni	0.29651 0.55731 0.41173 1.13700
O 	O 	0.28358 0.84095 0.44521 -0.32000
O 	O 	0.25558 0.79914 0.38311 -0.36100
O 	O 	0.29529 0.66496 0.33741 -0.34200
O 	O 	0.20235 0.53328 0.37511 -0.35300
O 	O 	0.19695 0.63715 0.48007 -0.34800
O 	O 	0.20152 0.50006 0.45476 -0.32200
O 	O 	0.30024 0.68169 0.41815 -0.71600
H 	H 	0.23555 0.66238 0.41540 0.18800
C 	C 	0.18408 0.58598 0.16062 0.32600
C 	C 	0.20373 0.38686 0.07372 0.32400
C 	C 	0.15670 0.62219 0.04416 0.34300
Ni	Ni	0.29039 0.72472 0.10397 1.12600
Ni	Ni	0.30906 0.59194 0.04144 1.13100
O 	O 	0.20263 0.70800 0.06198 -0.33300
O 	O 	0.24558 0.55913 0.16793 -0.34000
O 	O 	0.17927 0.61433 0.12776 -0.36300
O 	O 	0.35284 0.73523 0.02189 -0.34000
O 	O 	0.19925 0.43345 0.10246 -0.35700
O 	O 	0.26169 0.43969 0.04746 -0.34400
O 	O 	0.18062 0.55459 0.04676 -0.37700
O 	O 	0.33231 0.63469 0.09096 -0.71600
C 	C 	0.05028 0.07912 0.16549 0.32200
C 	C 	0.08285 0.21597 0.25426 0.32100
C 	C 	0.05050 0.81539 0.22605 0.33300
C 	C 	0.08212 0.95427 0.31294 0.31000
Ni	Ni	0.10174 0.03163 0.23670 1.12700
O 	O 	0.11575 0.90723 0.23342 -0.34200
O 	O 	0.07209 0.01793 0.18238 -0.34900
O 	O 	0.12648 0.03360 0.29090 -0.35400
O 	O 	0.12750 0.17802 0.23591 -0.35500
C 	C 	0.09277 0.12365 0.12980 -0.07700
C 	C 	0.18838 0.17798 0.12624 0.13700
C 	C 	0.22829 0.25519 0.10033 -0.03600
C 	C 	0.17384 0.27981 0.07828 -0.06200
C 	C 	0.08011 0.21093 0.07620 0.12600
H 	H 	0.30055 0.30673 0.10208 0.08600
Br	Br	0.26633 0.15738 0.15928 -0.21700
C 	C 	0.18778 0.67997 0.21653 -0.04200
C 	C 	0.13625 0.60833 0.18997 -0.07300
C 	C 	0.04618 0.58783 0.18349 0.13900
C 	C 	0.01685 0.65331 0.19649 -0.01200
C 	C 	0.07416 0.73500 0.21859 -0.08000
C 	C 	0.15592 0.74137 0.23177 0.13300
Br	Br	0.21852 0.82275 0.27335 -0.19300
H 	H 	0.25451 0.69174 0.22392 0.09000
C 	C 	0.15336 0.48202 0.28452 -0.02400
C 	C 	0.21254 0.49233 0.31335 -0.06400
C 	C 	0.23226 0.41262 0.31962 0.14100
C 	C 	0.20605 0.33693 0.29377 -0.03100
C 	C 	0.13537 0.31770 0.26986 -0.06700
C 	C 	0.10974 0.39194 0.26450 0.13200
H 	H 	0.13385 0.53895 0.28023 0.08000
H 	H 	0.22784 0.28160 0.29710 0.09300
Br	Br	0.26067 0.38183 0.36737 -0.23700
C 	C 	0.25308 0.99043 0.38651 0.01000
C 	C 	0.20111 0.90274 0.40713 -0.05800
C 	C 	0.10567 0.85733 0.40513 0.13000
C 	C 	0.06499 0.88168 0.37612 -0.01400
C 	C 	0.11948 0.95605 0.35039 -0.04500
C 	C 	0.21305 0.01826 0.35856 0.10500
Br	Br	0.28823 0.14277 0.33348 -0.16800
H 	H 	0.32651 0.02661 0.38751 0.08000
Br	Br	0.30002 0.96828 0.53256 -0.12100
Br	Br	0.26251 0.38680 0.51666 -0.13200
C 	C 	0.35121 0.23995 0.62799 -0.02600
C 	C 	0.28496 0.13869 0.68282 -0.08400
C 	C 	0.28216 0.15340 0.64476 0.13500
Br	Br	0.18745 0.05331 0.61502 -0.13700
H 	H 	0.34828 0.24994 0.59874 0.10000
C 	C 	0.09528 0.58101 0.98243 0.09500
Br	Br	0.20448 0.67171 0.95650 -0.14400
Br	Br	0.28619 0.91142 0.00750 -0.12100
Br	Br	0.34303 0.33189 0.95275 -0.13600
C 	C 	0.32704 0.18108 0.80636 -0.07000
C 	C 	0.34869 0.22707 0.84080 0.13200
Br	Br	0.28531 0.29316 0.85916 -0.14700
Ni	Ni	0.31971 0.53694 0.12545 1.12000
C 	C 	0.35925 0.21171 0.70278 -0.03400
Br	Br	0.39683 0.29292 0.04029 -0.15100
C 	C 	0.39933 0.59418 0.47768 0.34700
Ni	Ni	0.35966 0.77363 0.37845 1.12600
O 	O 	0.39183 0.59063 0.37040 -0.33200
O 	O 	0.36214 0.64143 0.49451 -0.32400
O 	O 	0.40551 0.59786 0.44265 -0.36800
O 	O 	0.43575 0.90632 0.40757 -0.34100
C 	C 	0.45025 0.54775 0.06161 0.32600
C 	C 	0.40372 0.82177 0.03969 0.33200
O 	O 	0.40148 0.49758 0.09139 -0.34200
O 	O 	0.43468 0.61339 0.04465 -0.36700
O 	O 	0.39228 0.83143 0.07500 -0.36600
O 	O 	0.37111 0.75862 0.15130 -0.34600
H 	H 	0.39823 0.68205 0.09088 0.18200
Br	Br	0.42530 0.66116 0.24008 -0.21200
C 	C 	0.41374 0.98277 0.51574 0.09800
C 	C 	0.43949 0.00531 0.47864 0.06300
Br	Br	0.41638 0.09983 0.45369 -0.15500
C 	C 	0.38951 0.44173 0.50505 0.09800
Br	Br	0.35307 0.23723 0.51353 -0.12600
C 	C 	0.43337 0.29841 0.64648 -0.06900
C 	C 	0.43187 0.29282 0.68485 0.12600
H 	H 	0.35885 0.20890 0.73204 0.07600
C 	C 	0.45838 0.91481 0.01844 -0.09700
C 	C 	0.41651 0.96784 0.00415 0.12400
Br	Br	0.41220 0.13042 0.96494 -0.15100
C 	C 	0.44172 0.42289 0.01899 0.10400
C 	C 	0.44026 0.43309 0.98074 0.10100
C 	C 	0.37580 0.13358 0.79388 -0.03700
C 	C 	0.41756 0.22560 0.86179 -0.02700
C 	C 	0.45307 0.14553 0.81279 0.13600
H 	H 	0.35166 0.08425 0.77042 0.07500
H 	H 	0.43327 0.26124 0.88842 0.08500
C 	C 	0.42760 0.37777 0.50271 0.10800
C 	C 	0.51489 0.31060 0.62789 0.32900
O 	O 	0.51786 0.22956 0.62084 -0.37300
C 	C 	0.47943 0.90645 0.43759 0.33800
C 	C 	0.46479 0.67994 0.36692 0.33400
O 	O 	0.45905 0.82079 0.45102 -0.35800
O 	O 	0.46628 0.75444 0.38365 -0.37400
C 	C 	0.43882 0.73694 0.15775 0.29800
O 	O 	0.43085 0.64901 0.14988 -0.35300
H 	H 	0.48130 0.80214 0.31096 0.06100
C 	C 	0.48039 0.99328 0.54128 -0.09700
C 	C 	0.44290 0.54480 0.49732 -0.09300
C 	C 	0.47006 0.06423 0.98896 0.09100
C 	C 	0.49774 0.50797 0.03970 -0.09700
C 	C 	0.51956 0.50666 0.96310 -0.09200
C 	C 	0.47995 0.20175 0.84517 -0.06700
C 	C 	0.56739 0.46688 0.94125 0.31800
C 	C 	0.50836 0.07796 0.56705 0.32600
O 	O 	0.52304 0.15968 0.55197 -0.36500
C 	C 	0.52560 0.70473 0.33511 -0.07700
C 	C 	0.50766 0.98723 0.46490 -0.09500
C 	C 	0.52197 0.41766 0.49657 -0.09400
Br	Br	0.53380 0.38804 0.71282 -0.17700
C 	C 	0.55408 0.96084 0.01909 0.12100
Br	Br	0.51690 0.07911 0.79546 -0.17400
O 	O 	0.58503 0.40350 0.95870 -0.37200
O 	O 	0.55716 0.08665 0.59643 -0.33000
C 	C 	0.51683 0.80146 0.18092 -0.06200
C 	C 	0.53704 0.78615 0.31332 -0.02100
C 	C 	0.56581 0.11032 0.98956 -0.08300
C 	C 	0.57535 0.59210 0.98394 0.10100
C 	C 	0.52957 0.75661 0.21257 0.12800
H 	H 	0.00975 0.48693 0.83654 0.12000
C 	C 	0.57654 0.27547 0.85044 0.29600
C 	C 	0.56750 0.37193 0.51722 0.34900
O 	O 	0.56595 0.37619 0.55218 -0.38100
O 	O 	0.58763 0.39968 0.62284 -0.33600
C 	C 	0.54905 0.97496 0.52766 0.09000
C 	C 	0.53722 0.58450 0.49183 0.10900
C 	C 	0.57727 0.58104 0.02218 0.10300
Br	Br	0.60975 0.72152 0.96414 -0.14600
O 	O 	0.59801 0.37038 0.84762 -0.34600
O 	O 	0.61317 0.51432 0.91038 -0.34000
C 	C 	0.57360 0.99489 0.49030 0.09400
Br	Br	0.57315 0.88114 0.55272 -0.12200
C 	C 	0.57420 0.52006 0.48764 0.10000
C 	C 	0.60771 0.05770 0.00425 0.09100
C 	C 	0.61998 0.20075 0.96694 0.32900
H 	H 	0.62240 0.33681 0.91276 0.17300
H 	H 	0.58607 0.91458 0.13999 0.08700
C 	C 	0.59556 0.68045 0.33575 0.13300
Br	Br	0.57946 0.56288 0.36105 -0.15700
Br	Br	0.62840 0.97006 0.63835 -0.16300
Br	Br	0.61172 0.89266 0.04180 -0.13500
O 	O 	0.63025 0.18675 0.93201 -0.36500
Ni	Ni	0.63286 0.22643 0.62160 1.13000
O 	O 	0.60695 0.32554 0.50155 -0.32300
C 	C 	0.59437 0.87441 0.16282 -0.03000
C 	C 	0.62357 0.85758 0.30086 0.12400
Br	Br	0.61354 0.72679 0.48496 -0.11400
C 	C 	0.61458 0.76308 0.21917 -0.02700
Br	Br	0.63954 0.98340 0.28292 -0.17600
O 	O 	0.64052 0.24799 0.85628 -0.33100
H 	H 	0.62083 0.71919 0.24109 0.07700
Br	Br	0.01758 0.79712 0.95341 -0.13400
O 	O 	0.67239 0.28897 0.98327 -0.34200
Ni	Ni	0.65259 0.24224 0.53347 1.11900
Ni	Ni	0.67989 0.43018 0.58096 1.13500
Br	Br	0.67392 0.68244 0.05068 -0.13500
O 	O 	0.68194 0.30872 0.57856 -0.71700
O 	O 	0.00986 0.15295 0.69669 -0.33300
O 	O 	0.68834 0.38351 0.91245 -0.71300
C 	C 	0.67796 0.87625 0.16711 0.12400
C 	C 	0.68031 0.74611 0.32004 -0.03100
Br	Br	0.68594 0.00618 0.47316 -0.16300
O 	O 	0.69820 0.34482 0.65866 -0.33600
C 	C 	0.68972 0.82198 0.19640 -0.07500
Ni	Ni	0.70069 0.48012 0.87717 1.11800
C 	C 	0.69704 0.83835 0.30445 -0.07300
Br	Br	0.69827 0.57348 0.47198 -0.12700
O 	O 	0.70383 0.14818 0.55623 -0.32700
H 	H 	0.70746 0.70679 0.90494 0.09000
O 	O 	0.00215 0.85175 0.73011 -0.33200
Br	Br	0.71002 0.61343 0.62504 -0.23500
Ni	Ni	0.71176 0.42926 0.96184 1.13100
C 	C 	0.00026 0.36271 0.80573 0.16800
Br	Br	0.71589 0.31758 0.76602 -0.17800
Br	Br	0.99839 0.43295 0.40816 -0.16400
O 	O 	0.99262 0.16884 0.25586 -0.35800
H 	H 	0.99187 0.83893 0.37243 0.07400
H 	H 	0.98582 0.01604 0.27320 0.14300
C 	C 	0.99217 0.46894 0.45809 0.08500
O 	O 	0.97746 0.98302 0.24930 -0.69500
O 	O 	0.96490 0.79409 0.22536 -0.38400
Br	Br	0.96547 0.47596 0.15377 -0.15900
H 	H 	0.95085 0.64248 0.18832 0.08000
H 	H 	0.96596 0.08838 0.10341 0.07500
C 	C 	0.81292 0.63288 0.92881 0.32500
C 	C 	0.82902 0.42103 0.84086 0.31600
C 	C 	0.86776 0.40549 0.95827 0.35100
Ni	Ni	0.72884 0.29094 0.90118 1.12600
O 	O 	0.84063 0.47029 0.95538 -0.38600
O 	O 	0.81936 0.58598 0.90063 -0.36400
O 	O 	0.75460 0.58001 0.95485 -0.34900
O 	O 	0.77879 0.46364 0.83526 -0.32500
O 	O 	0.83717 0.39426 0.87364 -0.37300
O 	O 	0.82141 0.31663 0.94233 -0.34000
C 	C 	0.81638 0.43799 0.52196 0.31700
C 	C 	0.74905 0.15949 0.58827 0.29600
C 	C 	0.75766 0.44146 0.65047 0.30700
O 	O 	0.77710 0.34201 0.51451 -0.35900
O 	O 	0.76938 0.48107 0.53591 -0.32400
O 	O 	0.77962 0.47008 0.61655 -0.35600
O 	O 	0.74049 0.20816 0.61627 -0.36600
H 	H 	0.74781 0.33272 0.58011 0.18300
C 	C 	0.91441 0.79906 0.73584 0.31000
C 	C 	0.93915 0.91645 0.82830 0.29500
C 	C 	0.94912 0.06703 0.68200 0.29400
C 	C 	0.97170 0.20551 0.77137 0.29200
Ni	Ni	0.90858 0.98456 0.75629 1.12700
O 	O 	0.91580 0.98411 0.70144 -0.36500
O 	O 	0.87221 0.83602 0.75532 -0.35600
O 	O 	0.90676 0.11734 0.75859 -0.37200
O 	O 	0.98712 0.88153 0.81018 -0.34200
O 	O 	0.90560 0.96844 0.81139 -0.34200
C 	C 	0.79084 0.91015 0.29131 0.30800
C 	C 	0.78264 0.83781 0.20598 0.31700
Ni	Ni	0.91385 0.03964 0.22611 1.11000
Ni	Ni	0.91469 0.84577 0.26416 1.12000
O 	O 	0.80381 0.97572 0.26442 -0.32800
O 	O 	0.85690 0.89326 0.30133 -0.37400
O 	O 	0.85282 0.91669 0.19319 -0.35400
O 	O 	0.79387 0.79138 0.23455 -0.35900
Br	Br	0.76549 0.93367 0.12794 -0.16300
H 	H 	0.73395 0.72657 0.32089 0.06800
C 	C 	0.92097 0.48614 0.46966 0.11300
C 	C 	0.90886 0.49805 0.50737 -0.08000
C 	C 	0.97988 0.51495 0.53126 0.08400
Br	Br	0.83044 0.47454 0.43502 -0.12600
Br	Br	0.97966 0.56086 0.58020 -0.15800
C 	C 	0.80700 0.99992 0.64568 0.00800
C 	C 	0.90050 0.06639 0.64793 -0.08400
C 	C 	0.94309 0.13646 0.61932 0.12700
C 	C 	0.88910 0.14744 0.59220 -0.03500
C 	C 	0.79366 0.09952 0.59636 -0.04700
C 	C 	0.75262 0.02181 0.62302 0.10300
H 	H 	0.77440 0.94020 0.66571 0.07200
H 	H 	0.92177 0.20386 0.57103 0.08400
C 	C 	0.83838 0.53185 0.70706 -0.02300
C 	C 	0.78008 0.52150 0.67792 -0.05900
C 	C 	0.76223 0.60180 0.67035 0.14000
C 	C 	0.79641 0.68453 0.69337 -0.02300
C 	C 	0.86181 0.69928 0.71940 -0.07000
C 	C 	0.88126 0.62150 0.72718 0.13500
Br	Br	0.96687 0.63690 0.76461 -0.21200
H 	H 	0.85616 0.47388 0.71219 0.08400
H 	H 	0.78045 0.74384 0.68789 0.08200
C 	C 	0.94519 0.43189 0.98241 -0.11300
C 	C 	0.93382 0.45411 0.01892 0.11100
C 	C 	0.99497 0.54860 0.03349 0.09200
Br	Br	0.95963 0.60518 0.07282 -0.14300
Br	Br	0.82760 0.36286 0.04627 -0.14900
Br	Br	0.73818 0.11493 0.00150 -0.13200
C 	C 	0.86278 0.27278 0.76933 -0.02200
C 	C 	0.94526 0.28175 0.78225 -0.09100
C 	C 	0.96873 0.42725 0.81762 -0.07100
C 	C 	0.87862 0.40435 0.81081 -0.05300
C 	C 	0.82955 0.33383 0.78348 0.11100
H 	H 	0.82327 0.21676 0.74900 0.07900
C 	C 	0.77964 0.75815 0.90303 -0.03300
C 	C 	0.83981 0.73858 0.92328 -0.06900
C 	C 	0.93344 0.80797 0.92098 0.12800
C 	C 	0.96675 0.87540 0.89139 -0.04100
C 	C 	0.90596 0.87758 0.86560 -0.05800
C 	C 	0.81168 0.82519 0.87355 0.12800
Br	Br	0.72379 0.83265 0.84208 -0.18600
