data_crystal

_cell_length_a 25.91499
_cell_length_b 26.21207
_cell_length_c 20.78016
_cell_angle_alpha 95.51199
_cell_angle_beta  95.51232
_cell_angle_gamma 125.86290

_symmetry_space_group_name_	'P 1'
_symmetry_space_group_name_H-M	'P 1'

loop_
_symmetry_equiv_pos_as_xyz
  x,y,z

loop_
_atom_site_label
_atom_site_type_symbol
_atom_site_fract_x
_atom_site_fract_y
_atom_site_fract_z
_atom_site_charge
C 	C 	0.03986 0.07747 0.94571 -0.07300
C 	C 	0.07799 0.05588 0.95391 0.10400
H 	H 	0.06179 0.12605 0.93820 0.10300
H 	H 	0.01961 0.06906 0.45572 0.11900
C 	C 	0.08123 0.01527 0.43919 -0.07000
C 	C 	0.09595 0.02341 0.37578 0.09400
C 	C 	0.16034 0.05438 0.36679 0.07900
C 	C 	0.20995 0.07661 0.42118 0.01000
C 	C 	0.19510 0.06801 0.48455 0.07800
C 	C 	0.13089 0.03784 0.49362 0.09900
Br	Br	0.11083 0.02791 0.58069 -0.11800
Br	Br	0.18085 0.06653 0.28015 -0.10600
Br	Br	0.01384 0.14585 0.06886 -0.11600
C 	C 	0.14924 0.10143 0.96138 -0.04700
C 	C 	0.17790 0.12401 0.90635 0.09200
C 	C 	0.18885 0.12000 0.02328 0.09300
Br	Br	0.12424 0.09727 0.82091 -0.12000
Br	Br	0.15136 0.10270 0.10148 -0.11500
Br	Br	0.26292 0.09751 0.55877 -0.12300
C 	C 	0.24586 0.16386 0.91333 0.08300
C 	C 	0.25599 0.15296 0.02822 0.08400
C 	C 	0.27785 0.10934 0.41195 0.02500
C 	C 	0.28469 0.17484 0.97304 0.00600
Br	Br	0.28693 0.22555 0.43453 -0.11200
Br	Br	0.28594 0.20321 0.84138 -0.11600
C 	C 	0.30126 0.07340 0.39841 0.06000
C 	C 	0.31998 0.17670 0.42031 0.06800
Br	Br	0.30800 0.16478 0.10926 -0.12400
Br	Br	0.30866 0.07889 0.90840 -0.12400
C 	C 	0.36721 0.10493 0.39575 0.13200
C 	C 	0.35443 0.20441 0.97623 0.02000
C 	C 	0.37332 0.16780 0.94897 0.06500
Br	Br	0.00488 0.09412 0.60935 -0.11800
C 	C 	0.38619 0.20825 0.41902 0.12600
Br	Br	0.37729 0.32214 0.03630 -0.10700
Br	Br	0.39890 0.05588 0.37449 -0.14900
C 	C 	0.41002 0.17241 0.40800 -0.11000
C 	C 	0.40196 0.26790 0.00966 0.06900
C 	C 	0.43940 0.19539 0.95331 0.12800
Br	Br	0.44480 0.30066 0.43445 -0.14400
Br	Br	0.46458 0.15298 0.89815 -0.18600
C 	C 	0.46737 0.29158 0.02375 0.13000
C 	C 	0.48006 0.20558 0.41240 0.33800
C 	C 	0.48672 0.25560 0.99473 -0.11900
C 	C 	0.97402 0.03723 0.95004 0.09700
C 	C 	0.99004 0.01883 0.45948 -0.13900
C 	C 	0.85234 0.15661 0.51198 0.02400
C 	C 	0.82688 0.16446 0.56571 0.06600
C 	C 	0.86855 0.11081 0.50782 0.01000
C 	C 	0.82917 0.05285 0.46170 0.08000
C 	C 	0.90530 0.02900 0.49084 -0.06500
C 	C 	0.93986 0.08262 0.54281 0.09300
C 	C 	0.92486 0.12629 0.54761 0.08000
Br	Br	0.80795 0.11240 0.63207 -0.10900
Br	Br	0.74562 0.02477 0.41656 -0.12700
C 	C 	0.77408 0.11059 0.98176 0.06300
C 	C 	0.81088 0.12018 0.93233 0.02200
C 	C 	0.85403 0.10036 0.93532 0.00900
C 	C 	0.91139 0.13476 0.98323 0.08000
C 	C 	0.94824 0.11161 0.99089 0.08400
C 	C 	0.93415 0.06059 0.94368 -0.04100
C 	C 	0.88037 0.03031 0.89168 0.08400
C 	C 	0.83746 0.04661 0.89091 0.07700
Br	Br	0.76719 0.05795 0.04426 -0.11400
C 	C 	0.85896 0.18982 0.46023 0.06500
Br	Br	0.90690 0.19130 0.39401 -0.11900
C 	C 	0.74186 0.13898 0.98495 0.12700
C 	C 	0.80711 0.14949 0.88066 0.06400
Br	Br	0.86429 0.17245 0.81831 -0.11100
O 	O 	0.56677 0.23671 0.02008 -0.33000
O 	O 	0.66247 0.18803 0.96484 -0.33500
C 	C 	0.71310 0.20676 0.93766 0.32500
O 	O 	0.71798 0.23370 0.53476 -0.40200
O 	O 	0.51268 0.20382 0.46372 -0.35500
H 	H 	0.61560 0.20930 0.40774 0.19200
H 	H 	0.72343 0.23311 0.18791 0.11700
C 	C 	0.80622 0.23088 0.51180 -0.11500
C 	C 	0.83062 0.22199 0.45708 0.13000
C 	C 	0.81139 0.20763 0.56866 0.13100
Br	Br	0.82011 0.24761 0.37596 -0.14500
Br	Br	0.98326 0.20856 0.60559 -0.11700
Br	Br	0.80677 0.24193 0.65221 -0.20200
C 	C 	0.73775 0.16793 0.93236 -0.11500
C 	C 	0.76402 0.16540 0.87686 0.13100
Br	Br	0.70699 0.14034 0.06237 -0.14100
Br	Br	0.73254 0.17261 0.79308 -0.20400
Br	Br	0.94038 0.21443 0.03684 -0.12300
C 	C 	0.76975 0.25824 0.50792 0.32700
Cu	Cu	0.64919 0.25223 0.00011 0.93900
Cu	Cu	0.68309 0.26549 0.85184 0.89200
O 	O 	0.64109 0.27894 0.91628 -0.63900
O 	O 	0.73838 0.25717 0.90954 -0.40300
C 	C 	0.55480 0.27807 0.01158 0.32100
O 	O 	0.67257 0.24019 0.08397 -0.33700
O 	O 	0.64869 0.29302 0.79003 -0.38700
H 	H 	0.59766 0.26614 0.89773 0.19900
Cu	Cu	0.70914 0.28836 0.59206 0.89100
Cu	Cu	0.60349 0.26878 0.49774 0.90800
Cu	Cu	0.59978 0.27877 0.35166 0.91100
O 	O 	0.62888 0.25349 0.41902 -0.63600
O 	O 	0.65540 0.27831 0.29170 -0.35300
O 	O 	0.50608 0.22773 0.36051 -0.34600
O 	O 	0.58012 0.27145 0.58482 -0.36600
H 	H 	0.55163 0.31177 0.67994 0.10600
C 	C 	0.71935 0.27219 0.19270 -0.09900
C 	C 	0.69433 0.28136 0.13964 0.32500
Cu	Cu	0.72956 0.32672 0.44658 0.93500
C 	C 	0.71872 0.30774 0.30522 0.33100
C 	C 	0.62097 0.30734 0.64097 0.33000
O 	O 	0.79133 0.30963 0.48220 -0.33700
O 	O 	0.74739 0.31072 0.36310 -0.33900
O 	O 	0.67947 0.32152 0.65224 -0.38800
C 	C 	0.60037 0.32499 0.68894 -0.10100
C 	C 	0.75069 0.31901 0.25534 -0.09600
O 	O 	0.69892 0.33222 0.52820 -0.64000
C 	C 	0.66387 0.35122 0.79917 0.32700
O 	O 	0.60332 0.33878 0.01578 -0.35800
H 	H 	0.80335 0.35041 0.26658 0.10600
O 	O 	0.72293 0.35203 0.02350 -0.63500
O 	O 	0.68028 0.32247 0.14664 -0.35400
O 	O 	0.64352 0.37221 0.41330 -0.35500
H 	H 	0.71254 0.37548 0.54680 0.19600
C 	C 	0.64536 0.37026 0.75025 -0.10300
Br	Br	0.52787 0.36894 0.08856 -0.15400
Cu	Cu	0.70631 0.37369 0.94247 0.90400
H 	H 	0.76816 0.36701 0.03660 0.18900
Cu	Cu	0.69371 0.38228 0.08550 0.91100
O 	O 	0.70192 0.39325 0.85386 -0.37100
O 	O 	0.74982 0.41091 0.43214 -0.34400
C 	C 	0.70552 0.42054 0.42332 0.32500
H 	H 	0.65895 0.41856 0.75774 0.10600
C 	C 	0.85060 0.01516 0.44913 0.09100
O 	O 	0.77171 0.46417 0.97291 -0.35900
Br	Br	0.65049 0.45779 0.53295 -0.17700
C 	C 	0.77041 0.49789 0.02313 0.33900
O 	O 	0.75109 0.47467 0.07694 -0.34500
C 	C 	0.72599 0.48674 0.42876 -0.11600
Br	Br	0.78870 0.49256 0.31812 -0.17700
C 	C 	0.70536 0.51086 0.47521 0.12900
C 	C 	0.77004 0.52751 0.39046 0.13000
Br	Br	0.67287 0.53142 0.00522 -0.14400
C 	C 	0.80304 0.56660 0.02462 -0.10900
C 	C 	0.72785 0.57509 0.48198 0.06600
Br	Br	0.92237 0.57956 0.05435 -0.14300
C 	C 	0.76588 0.58920 0.01376 0.12400
C 	C 	0.79822 0.59325 0.40307 0.06400
C 	C 	0.04910 0.99242 0.96169 -0.06800
Br	Br	0.02768 0.99182 0.30142 -0.10400
H 	H 	0.07826 0.97528 0.96694 0.10200
Br	Br	0.24307 0.98107 0.38490 -0.10400
C 	C 	0.01376 0.98312 0.44877 0.16600
Br	Br	0.75484 0.99367 0.83137 -0.10300
Br	Br	0.99446 0.73046 0.03296 -0.11600
C 	C 	0.98341 0.95216 0.96604 0.10900
C 	C 	0.94626 0.97498 0.96146 -0.07000
H 	H 	0.89581 0.94429 0.96640 0.10100
C 	C 	0.92916 0.99035 0.47739 0.15700
C 	C 	0.97450 0.91755 0.45067 -0.11300
C 	C 	0.91310 0.88845 0.46724 0.13800
C 	C 	0.89140 0.92539 0.48287 -0.10500
H 	H 	0.99210 0.88949 0.44038 0.11000
H 	H 	0.84475 0.90337 0.49762 0.11200
C 	C 	0.77636 0.61700 0.44804 0.02300
C 	C 	0.80394 0.68588 0.45886 0.01000
C 	C 	0.78506 0.70940 0.41111 0.08000
C 	C 	0.82141 0.77577 0.41303 0.09600
C 	C 	0.87128 0.81889 0.46744 -0.05500
C 	C 	0.88495 0.79517 0.51926 0.09500
C 	C 	0.85348 0.72887 0.51356 0.08000
Br	Br	0.86814 0.65117 0.36028 -0.12500
Br	Br	0.80743 0.80725 0.33828 -0.11400
Br	Br	0.88028 0.69717 0.57878 -0.12100
Br	Br	0.69170 0.60550 0.53687 -0.11100
Br	Br	0.71006 0.65047 0.34259 -0.11300
Br	Br	0.94668 0.85359 0.59787 -0.11700
Br	Br	0.80961 0.94977 0.37085 -0.11100
C 	C 	0.79645 0.65350 0.00783 0.07100
C 	C 	0.86415 0.69501 0.01198 0.02300
C 	C 	0.90158 0.67302 0.02545 0.06700
C 	C 	0.87107 0.60901 0.03256 0.13100
C 	C 	0.89571 0.76120 0.00034 0.01400
C 	C 	0.90125 0.77357 0.93586 0.07700
C 	C 	0.92981 0.83614 0.92458 0.09400
C 	C 	0.95394 0.88659 0.97788 -0.05000
C 	C 	0.94908 0.87437 0.04240 0.09600
C 	C 	0.91962 0.81165 0.05361 0.08000
Br	Br	0.93498 0.85279 0.83607 -0.11900
Br	Br	0.91152 0.79451 0.14177 -0.10800
Br	Br	0.74575 0.68474 0.99313 -0.11600
Br	Br	0.86963 0.70460 0.86318 -0.12400
Br	Br	0.98279 0.94372 0.11527 -0.11000
Br	Br	0.86801 0.96988 0.81942 -0.11600
