data_crystal

_cell_length_a 20.11248
_cell_length_b 21.43294
_cell_length_c 27.62853
_cell_angle_alpha 60.88496
_cell_angle_beta  118.83784
_cell_angle_gamma 133.18962

_symmetry_space_group_name_	'P 1'
_symmetry_space_group_name_H-M	'P 1'

loop_
_symmetry_equiv_pos_as_xyz
  x,y,z

loop_
_atom_site_label
_atom_site_type_symbol
_atom_site_fract_x
_atom_site_fract_y
_atom_site_fract_z
_atom_site_charge
N 	N 	0.62111 0.24485 0.04076 -0.13600
C 	C 	0.60621 0.29447 0.04522 0.14700
C 	C 	0.62622 0.30514 0.53847 0.14700
C 	C 	0.27247 0.65922 0.19926 0.14000
N 	N 	0.20097 0.58204 0.18196 -0.13600
C 	C 	0.22150 0.53405 0.18018 0.14500
N 	N 	0.31160 0.56364 0.19454 -0.13900
C 	C 	0.38188 0.63896 0.21203 0.15100
N 	N 	0.36235 0.68548 0.21587 -0.12800
C 	C 	0.29600 0.67512 0.69166 0.13900
N 	N 	0.22141 0.59668 0.67681 -0.14000
C 	C 	0.23700 0.54704 0.67238 0.14700
N 	N 	0.32566 0.57577 0.68231 -0.13200
C 	C 	0.39925 0.65231 0.69783 0.14800
N 	N 	0.38470 0.70123 0.70358 -0.12900
Co	Co	0.04227 0.02421 0.04571 1.16200
C 	C 	0.23060 0.12428 0.03079 0.34000
Co	Co	0.12064 0.93173 0.04717 1.17900
O 	O 	0.01113 0.10306 0.03573 -0.47100
C 	C 	0.01972 0.19421 0.15053 0.32000
C 	C 	0.20662 0.90197 0.16801 0.31300
O 	O 	0.05109 0.17084 0.13431 -0.39700
O 	O 	0.22556 0.96095 0.11979 -0.38000
O 	O 	0.15146 0.88810 0.19091 -0.36600
O 	O 	0.05094 0.93914 0.07963 -0.73000
C 	C 	0.00447 0.98381 0.30107 0.39700
O 	O 	0.18913 0.06414 0.00500 -0.43900
O 	O 	0.18553 0.11517 0.05847 -0.42400
Co	Co	0.06306 0.03818 0.54333 1.16500
C 	C 	0.24420 0.13132 0.51755 0.32700
Co	Co	0.13238 0.93641 0.54429 1.18200
O 	O 	0.02856 0.11486 0.53280 -0.46400
C 	C 	0.03013 0.20336 0.64960 0.32000
C 	C 	0.22438 0.90946 0.66458 0.31200
O 	O 	0.06220 0.18773 0.62755 -0.38500
O 	O 	0.24065 0.96754 0.61547 -0.38000
O 	O 	0.16753 0.89202 0.68819 -0.35800
O 	O 	0.07789 0.95674 0.57971 -0.72800
C 	C 	0.00793 0.98151 0.80305 0.39500
O 	O 	0.19812 0.06514 0.49620 -0.44000
O 	O 	0.20227 0.13558 0.53944 -0.38900
H 	H 	0.03117 0.91415 0.88917 0.10600
C 	C 	0.15937 0.46021 0.65980 -0.04100
C 	C 	0.12497 0.38669 0.70533 -0.08800
C 	C 	0.08814 0.30370 0.70350 0.18400
C 	C 	0.08278 0.29296 0.65497 -0.11300
C 	C 	0.11011 0.36503 0.60760 -0.04000
C 	C 	0.14581 0.44774 0.60932 0.14200
H 	H 	0.13429 0.39532 0.74421 0.07300
O 	O 	0.06164 0.23400 0.75032 -0.28100
H 	H 	0.10308 0.35697 0.56924 0.06100
O 	O 	0.17530 0.51828 0.56335 -0.26600
H 	H 	0.12014 0.51963 0.53991 0.15000
C 	C 	0.49370 0.68661 0.70199 -0.03700
C 	C 	0.52593 0.72813 0.65232 0.14700
O 	O 	0.46987 0.73888 0.59978 -0.26500
H 	H 	0.48413 0.79669 0.59249 0.16000
C 	C 	0.28159 0.73558 0.69044 -0.03800
C 	C 	0.20439 0.70146 0.70737 -0.08700
C 	C 	0.19077 0.75860 0.70608 0.18700
C 	C 	0.25357 0.85090 0.68634 -0.11100
C 	C 	0.33466 0.88470 0.67427 -0.04400
C 	C 	0.34713 0.82812 0.67400 0.14300
H 	H 	0.15470 0.63075 0.72139 0.07200
O 	O 	0.11383 0.72380 0.72152 -0.29200
H 	H 	0.38486 0.95545 0.66072 0.07800
O 	O 	0.42244 0.86356 0.65640 -0.26100
H 	H 	0.40018 0.86958 0.61464 0.15200
H 	H 	0.13471 0.71940 0.76300 0.16100
C 	C 	0.07825 0.28364 0.15894 -0.11900
C 	C 	0.07739 0.29107 0.20648 -0.04100
C 	C 	0.10881 0.37174 0.20890 0.14000
C 	C 	0.14745 0.44800 0.16531 -0.04200
C 	C 	0.14388 0.43981 0.11636 -0.08800
C 	C 	0.11180 0.35882 0.11366 0.18200
H 	H 	0.04931 0.23321 0.24097 0.05600
O 	O 	0.10924 0.37742 0.25641 -0.27300
H 	H 	0.17305 0.49797 0.08227 0.07000
O 	O 	0.11147 0.35318 0.06617 -0.29400
H 	H 	0.17346 0.36698 0.07419 0.15500
H 	H 	0.04845 0.36639 0.24766 0.14800
C 	C 	0.47854 0.67675 0.21776 -0.04000
C 	C 	0.50595 0.70077 0.16995 -0.08600
H 	H 	0.45668 0.69441 0.12872 0.07400
C 	C 	0.23217 0.84016 0.18947 -0.11100
C 	C 	0.31177 0.87141 0.17697 -0.04500
C 	C 	0.32118 0.81296 0.17608 0.14200
C 	C 	0.25514 0.72072 0.19336 -0.03800
C 	C 	0.17863 0.68873 0.21008 -0.08600
C 	C 	0.16741 0.74797 0.20875 0.18600
H 	H 	0.36334 0.94186 0.16355 0.07600
O 	O 	0.39479 0.84637 0.15769 -0.26400
H 	H 	0.12827 0.61832 0.22450 0.07200
O 	O 	0.09182 0.71537 0.22454 -0.29400
H 	H 	0.11337 0.71108 0.26604 0.16000
H 	H 	0.37123 0.85160 0.11600 0.15500
C 	C 	0.52933 0.26824 0.53142 -0.04400
C 	C 	0.50168 0.24925 0.57753 -0.09100
C 	C 	0.40950 0.21456 0.57144 0.18500
C 	C 	0.34429 0.19855 0.51890 -0.12400
C 	C 	0.37508 0.22684 0.47133 -0.04100
C 	C 	0.46695 0.26051 0.47761 0.13800
H 	H 	0.55118 0.25954 0.61848 0.07700
O 	O 	0.38262 0.19421 0.61723 -0.28300
H 	H 	0.32580 0.21684 0.43030 0.06100
O 	O 	0.49465 0.28305 0.43152 -0.28000
H 	H 	0.51986 0.34622 0.41398 0.15300
H 	H 	0.36412 0.13336 0.63823 0.14400
C 	C 	0.51212 0.25914 0.04258 -0.05900
C 	C 	0.45734 0.27842 0.99087 -0.07400
C 	C 	0.36745 0.24559 0.98823 0.20600
C 	C 	0.33138 0.19137 0.03733 -0.15100
C 	C 	0.39077 0.18182 0.09020 -0.03700
C 	C 	0.48010 0.21339 0.09279 0.14000
H 	H 	0.48373 0.31744 0.95255 0.07200
O 	O 	0.31165 0.25968 0.93669 -0.28500
H 	H 	0.36446 0.14266 0.12856 0.05400
O 	O 	0.53591 0.19918 0.14431 -0.27200
H 	H 	0.52066 0.14203 0.14881 0.14400
H 	H 	0.32299 0.31422 0.93363 0.15700
C 	C 	0.54891 0.67084 0.75501 -0.08600
H 	H 	0.52245 0.63503 0.79310 0.07500
C 	C 	0.54115 0.68124 0.27148 0.14300
O 	O 	0.51296 0.65195 0.31921 -0.27300
H 	H 	0.52836 0.70433 0.32335 0.15900
Co	Co	0.02335 0.87258 0.14429 1.18400
O 	O 	0.01988 0.94990 0.28070 -0.38700
O 	O 	0.05845 0.79882 0.08824 -0.39200
Co	Co	0.04538 0.88765 0.64259 1.18500
O 	O 	0.04078 0.99800 0.63008 -0.54600
C 	C 	0.00156 0.96613 0.44339 0.31400
C 	C 	0.01333 0.96003 0.85963 -0.16700
C 	C 	0.01390 0.96265 0.35826 -0.17700
H 	H 	0.03701 0.92051 0.38677 0.10300
O 	O 	0.01876 0.94186 0.78440 -0.37100
O 	O 	0.06861 0.80474 0.58818 -0.39400
N 	N 	0.64576 0.25980 0.53313 -0.13500
C 	C 	0.61588 0.75932 0.65651 -0.03700
C 	C 	0.59746 0.73503 0.17485 0.18700
H 	H 	0.61384 0.71281 0.12444 0.15400
N 	N 	0.67956 0.37239 0.05898 -0.13600
N 	N 	0.69651 0.38037 0.55604 -0.13900
C 	C 	0.63922 0.70294 0.75916 0.18900
C 	C 	0.63237 0.71453 0.27649 -0.03900
H 	H 	0.64237 0.79559 0.61838 0.07300
O 	O 	0.62526 0.76417 0.12700 -0.27800
C 	C 	0.67549 0.75340 0.71019 -0.12000
C 	C 	0.66275 0.74710 0.22770 -0.12200
H 	H 	0.68462 0.63666 0.81756 0.15300
H 	H 	0.68169 0.72126 0.31770 0.06300
O 	O 	0.69518 0.69209 0.81171 -0.28200
C 	C 	0.70997 0.27189 0.05197 0.14000
C 	C 	0.73591 0.28756 0.54799 0.13900
H 	H 	0.57342 0.08483 0.58231 0.14400
O 	O 	0.01643 0.90571 0.47716 -0.37600
C 	C 	0.76833 0.40159 0.06868 0.14000
C 	C 	0.78681 0.41222 0.56764 0.14400
C 	C 	0.75344 0.22575 0.55509 -0.04100
C 	C 	0.72467 0.21039 0.05551 -0.05900
C 	C 	0.79212 0.24094 0.03083 -0.07400
O 	O 	0.00954 0.90468 0.97712 -0.37100
C 	C 	0.66555 0.11926 0.07965 0.17100
O 	O 	0.59929 0.08761 0.10422 -0.29700
N 	N 	0.78435 0.35138 0.06543 -0.14100
C 	C 	0.76269 0.81478 0.22907 0.33000
C 	C 	0.77626 0.82099 0.71644 0.33200
C 	C 	0.69546 0.13548 0.58128 0.14100
O 	O 	0.63555 0.10720 0.60968 -0.28200
C 	C 	0.67449 0.06031 0.07919 -0.14700
C 	C 	0.80321 0.18183 0.03223 0.16400
O 	O 	0.76266 0.97546 0.12911 -0.32300
C 	C 	0.70155 0.07439 0.58095 -0.06500
H 	H 	0.65597 0.00536 0.60123 0.04600
C 	C 	0.74736 0.09129 0.05945 -0.06900
H 	H 	0.62853 0.99058 0.09805 0.12700
N 	N 	0.80749 0.36558 0.56422 -0.13800
C 	C 	0.77754 0.03370 0.07992 0.23300
O 	O 	0.80486 0.81150 0.20671 -0.38200
O 	O 	0.77838 0.98111 0.62560 -0.33200
C 	C 	0.79553 0.04072 0.57743 0.24600
C 	C 	0.77027 0.10209 0.55878 -0.09800
H 	H 	0.63152 0.08978 0.14472 0.14200
O 	O 	0.80768 0.88159 0.24942 -0.39600
C 	C 	0.81804 0.25347 0.52909 -0.08400
C 	C 	0.82638 0.19208 0.53052 0.17500
O 	O 	0.81722 0.88177 0.74147 -0.38300
O 	O 	0.82128 0.83056 0.68845 -0.39600
H 	H 	0.83528 0.31017 0.00999 0.06900
H 	H 	0.86126 0.71198 0.46727 0.15800
H 	H 	0.86110 0.55488 0.99399 0.08800
H 	H 	0.87192 0.71053 0.96861 0.16300
C 	C 	0.84556 0.48889 0.08058 -0.03600
H 	H 	0.86631 0.56640 0.49011 0.07100
C 	C 	0.87339 0.56249 0.03415 -0.10600
H 	H 	0.86041 0.32194 0.50680 0.07000
O 	O 	0.84142 0.43003 0.17961 -0.27000
O 	O 	0.83601 0.05384 0.05620 -0.36300
O 	O 	0.85245 0.05815 0.55399 -0.37200
C 	C 	0.86037 0.50104 0.57829 -0.04100
O 	O 	0.86369 0.44290 0.67853 -0.27300
C 	C 	0.86395 0.50032 0.13283 0.14000
O 	O 	0.86520 0.21201 0.00477 -0.27900
Co	Co	0.87101 0.00954 0.19996 1.14200
C 	C 	0.88032 0.57357 0.53089 -0.08600
C 	C 	0.87991 0.51201 0.63108 0.14200
Co	Co	0.88326 0.01344 0.69785 1.15100
O 	O 	0.88452 0.21925 0.50130 -0.28000
H 	H 	0.99530 0.20721 0.74567 0.14400
C 	C 	0.99832 0.96719 0.94207 0.32400
O 	O 	0.99497 0.04291 0.76743 -0.43500
O 	O 	0.98913 0.00768 0.96104 -0.39900
O 	O 	0.98761 0.04294 0.26666 -0.45300
O 	O 	0.98724 0.00044 0.46411 -0.42000
C 	C 	0.99205 0.99080 0.87971 0.02300
O 	O 	0.94348 0.14598 0.65578 -0.40700
C 	C 	0.99039 0.98908 0.38034 0.02400
O 	O 	0.93270 0.14068 0.15492 -0.41700
H 	H 	0.96505 0.02950 0.35219 0.01000
Co	Co	0.98059 0.07333 0.60065 1.17300
H 	H 	0.97219 0.03527 0.85047 0.02100
Co	Co	0.95871 0.05895 0.10195 1.16200
O 	O 	0.92241 0.72054 0.48610 -0.28900
H 	H 	0.89897 0.43210 0.19977 0.14900
Co	Co	0.94368 0.90994 0.20215 1.18700
C 	C 	0.97193 0.74228 0.09452 0.32300
O 	O 	0.92703 0.99015 0.16516 -0.71300
O 	O 	0.97805 0.83303 0.21288 -0.45000
O 	O 	0.96468 0.94933 0.11520 -0.55500
O 	O 	0.94137 0.75783 0.11784 -0.37700
Co	Co	0.96439 0.92306 0.70017 1.20100
C 	C 	0.98199 0.75207 0.59307 0.32800
O 	O 	0.95397 0.00702 0.66568 -0.78500
O 	O 	0.99560 0.84446 0.70987 -0.45000
O 	O 	0.95219 0.77586 0.61027 -0.38400
H 	H 	0.94668 0.24029 0.52839 0.14800
C 	C 	0.92307 0.66194 0.58601 -0.11000
C 	C 	0.90939 0.59146 0.63453 -0.03700
C 	C 	0.90737 0.65199 0.53386 0.18200
H 	H 	0.92438 0.59904 0.67539 0.07200
H 	H 	0.92385 0.44957 0.69680 0.15200
H 	H 	0.92647 0.23408 0.03283 0.16300
C 	C 	0.90671 0.64350 0.03706 0.17400
C 	C 	0.91783 0.65311 0.08798 -0.11000
C 	C 	0.89773 0.58150 0.13601 -0.03700
O 	O 	0.93010 0.71389 0.99033 -0.27600
H 	H 	0.90978 0.58903 0.17612 0.07300
