data_crystal

_cell_length_a 18.90547
_cell_length_b 16.84248
_cell_length_c 37.26194
_cell_angle_alpha 88.28530
_cell_angle_beta  88.43483
_cell_angle_gamma 107.45720

_symmetry_space_group_name_	'P 1'
_symmetry_space_group_name_H-M	'P 1'

loop_
_symmetry_equiv_pos_as_xyz
  x,y,z

loop_
_atom_site_label
_atom_site_type_symbol
_atom_site_fract_x
_atom_site_fract_y
_atom_site_fract_z
_atom_site_charge
Zn	Zn	0.57058 0.30788 0.89664 1.22300
Zn	Zn	0.67810 0.46066 0.94029 1.20100
C 	C 	0.78972 0.22108 0.86006 0.30500
Zn	Zn	0.74430 0.36262 0.88856 1.22700
Zn	Zn	0.62619 0.18047 0.86065 1.20500
H 	H 	0.67393 0.30798 0.94742 0.19200
C 	C 	0.72030 0.51648 0.86057 0.31100
O 	O 	0.51731 0.13295 0.85459 -0.45100
O 	O 	0.48520 0.25329 0.86084 -0.38800
O 	O 	0.66795 0.34498 0.92734 -0.79000
O 	O 	0.57388 0.45319 0.95168 -0.45100
O 	O 	0.52292 0.21705 0.93177 -0.42900
O 	O 	0.52726 0.40022 0.89851 -0.41900
O 	O 	0.60712 0.14928 0.91837 -0.40100
O 	O 	0.78235 0.52889 0.93590 -0.44900
H 	H 	0.64165 0.32845 0.83809 0.20800
O 	O 	0.83220 0.42501 0.92269 -0.37100
O 	O 	0.64741 0.30258 0.86160 -0.78400
O 	O 	0.72541 0.16581 0.86896 -0.42600
O 	O 	0.76196 0.46627 0.85856 -0.40100
O 	O 	0.80959 0.29429 0.87499 -0.37500
O 	O 	0.66688 0.50350 0.88554 -0.40600
C 	C 	0.46967 0.17586 0.85055 0.32400
C 	C 	0.52087 0.43684 0.92852 0.30700
C 	C 	0.54898 0.15427 0.93729 0.27500
C 	C 	0.83772 0.49743 0.93664 0.28900
Zn	Zn	0.64924 0.43022 0.54742 1.22500
Zn	Zn	0.48284 0.29562 0.52425 1.19700
C 	C 	0.70545 0.18566 0.60546 0.32900
Zn	Zn	0.59212 0.23735 0.56806 1.22500
Zn	Zn	0.74591 0.37111 0.59902 1.20600
H 	H 	0.61392 0.29766 0.50514 0.18000
C 	C 	0.45541 0.23971 0.60382 0.28500
O 	O 	0.80667 0.48824 0.58845 -0.39400
O 	O 	0.71085 0.53805 0.57430 -0.36400
O 	O 	0.59158 0.31330 0.52713 -0.78700
O 	O 	0.47590 0.40986 0.52035 -0.43600
O 	O 	0.73513 0.44185 0.51443 -0.40500
O 	O 	0.58823 0.50007 0.53183 -0.39100
O 	O 	0.77367 0.34267 0.54447 -0.39700
O 	O 	0.43372 0.17486 0.52975 -0.45100
H 	H 	0.61174 0.37147 0.61067 0.20100
O 	O 	0.53542 0.13042 0.53820 -0.35700
O 	O 	0.63933 0.35603 0.59043 -0.78100
O 	O 	0.74469 0.25801 0.61723 -0.43200
O 	O 	0.50945 0.20582 0.60448 -0.35300
O 	O 	0.66951 0.18174 0.57543 -0.41500
O 	O 	0.46052 0.30294 0.58132 -0.40000
C 	C 	0.77975 0.55104 0.58381 0.31600
C 	C 	0.53323 0.47324 0.51014 0.27100
C 	C 	0.78099 0.39687 0.51719 0.29600
C 	C 	0.46838 0.11856 0.52571 0.32600
Zn	Zn	0.93243 0.91144 0.71938 1.23500
Zn	Zn	0.03908 0.90624 0.78784 1.21700
C 	C 	0.15905 0.10594 0.66314 0.32100
Zn	Zn	0.08007 0.04961 0.73172 1.22300
Zn	Zn	0.99561 0.02380 0.65242 1.17800
H 	H 	0.07418 0.89998 0.72104 0.23100
C 	C 	0.99089 0.06871 0.79390 0.22600
O 	O 	0.89124 0.97569 0.63880 -0.38100
O 	O 	0.83370 0.91925 0.69332 -0.31400
O 	O 	0.04325 0.92693 0.73513 -0.74900
O 	O 	0.94674 0.80947 0.79410 -0.41700
O 	O 	0.93494 0.81886 0.69013 -0.36600
O 	O 	0.87056 0.86972 0.76375 -0.37700
O 	O 	0.00513 0.89866 0.64460 -0.32900
O 	O 	0.12529 0.98871 0.80899 -0.36900
H 	H 	0.95112 0.06293 0.71231 0.17900
O 	O 	0.18102 0.05638 0.75687 -0.33900
O 	O 	0.98157 0.02678 0.70536 -0.83800
O 	O 	0.10751 0.05914 0.64295 -0.43500
O 	O 	0.04616 0.10675 0.77120 -0.39300
O 	O 	0.14210 0.12755 0.69505 -0.42500
O 	O 	0.97137 0.98734 0.79961 -0.36400
C 	C 	0.83283 0.95659 0.66143 0.27000
C 	C 	0.87996 0.80904 0.78454 0.31000
C 	C 	0.95470 0.82979 0.65616 0.28900
C 	C 	0.18532 0.03170 0.79026 0.24300
Zn	Zn	0.32382 0.72096 0.38626 1.22700
Zn	Zn	0.20711 0.56401 0.43243 1.20200
C 	C 	0.11568 0.82260 0.34879 0.29800
Zn	Zn	0.15103 0.67442 0.38033 1.22500
Zn	Zn	0.27868 0.85690 0.35021 1.20000
H 	H 	0.21599 0.71748 0.43830 0.19800
C 	C 	0.17278 0.52140 0.35325 0.31400
O 	O 	0.38937 0.90132 0.34450 -0.40900
O 	O 	0.41452 0.77634 0.34935 -0.34600
O 	O 	0.22317 0.68298 0.41828 -0.78500
O 	O 	0.30920 0.56198 0.44301 -0.45800
O 	O 	0.36911 0.80649 0.42006 -0.39700
O 	O 	0.36282 0.62638 0.38996 -0.41900
O 	O 	0.28706 0.87756 0.40811 -0.38500
O 	O 	0.10081 0.50231 0.42975 -0.45900
H 	H 	0.25947 0.71042 0.32840 0.19200
O 	O 	0.05812 0.61243 0.41617 -0.36800
O 	O 	0.25198 0.73371 0.35178 -0.79200
O 	O 	0.17977 0.87578 0.35663 -0.41900
O 	O 	0.13259 0.57333 0.35177 -0.41400
O 	O 	0.09107 0.74919 0.36613 -0.38700
O 	O 	0.22267 0.52796 0.37789 -0.40900
C 	C 	0.43479 0.85603 0.33958 0.30200
C 	C 	0.36814 0.59274 0.42156 0.35300
C 	C 	0.33956 0.86498 0.42796 0.34400
C 	C 	0.04819 0.53822 0.43159 0.37200
Zn	Zn	0.20895 0.72073 0.06599 1.22900
Zn	Zn	0.34858 0.81896 0.11673 1.20500
C 	C 	0.35400 0.55857 0.01992 0.33400
Zn	Zn	0.37398 0.71335 0.05749 1.22600
Zn	Zn	0.23343 0.61720 0.00340 1.20600
H 	H 	0.29291 0.66143 0.11304 0.20600
C 	C 	0.40677 0.88923 0.03977 0.32600
O 	O 	0.16200 0.65849 0.97891 -0.45600
O 	O 	0.11973 0.71243 0.02850 -0.35900
O 	O 	0.30103 0.71009 0.09614 -0.77900
O 	O 	0.25941 0.84923 0.13198 -0.39600
O 	O 	0.14679 0.61623 0.09000 -0.40800
O 	O 	0.19289 0.82749 0.08051 -0.38900
O 	O 	0.13847 0.54519 0.03817 -0.39200
O 	O 	0.45814 0.84640 0.11486 -0.44400
H 	H 	0.28937 0.76638 0.01209 0.18300
O 	O 	0.46315 0.72331 0.09275 -0.38500
O 	O 	0.28055 0.71716 0.02872 -0.79900
O 	O 	0.28276 0.54280 0.02618 -0.46300
O 	O 	0.42957 0.82320 0.03654 -0.43600
O 	O 	0.40126 0.61953 0.03616 -0.41100
O 	O 	0.35824 0.89143 0.06570 -0.39300
C 	C 	0.10890 0.67861 0.99650 0.34600
C 	C 	0.21127 0.86650 0.11075 0.31600
C 	C 	0.12015 0.54771 0.07239 0.33800
C 	C 	0.49600 0.79486 0.10703 0.31800
Zn	Zn	0.99390 0.15854 0.20766 1.22100
Zn	Zn	0.87148 0.14097 0.27509 1.20000
C 	C 	0.78898 0.95218 0.14464 0.36400
Zn	Zn	0.84459 0.01415 0.21645 1.21600
Zn	Zn	0.94528 0.06706 0.13940 1.20500
H 	H 	0.84979 0.16641 0.20847 0.19600
C 	C 	0.92294 0.98053 0.27885 0.36400
O 	O 	0.04819 0.13775 0.12886 -0.38000
O 	O 	0.09853 0.15874 0.18384 -0.33100
O 	O 	0.87895 0.13622 0.22187 -0.78600
O 	O 	0.96003 0.23827 0.28369 -0.44000
O 	O 	0.99827 0.25713 0.17708 -0.36500
O 	O 	0.04519 0.19055 0.25302 -0.39100
O 	O 	0.91313 0.18190 0.13980 -0.33900
O 	O 	0.78283 0.05031 0.29488 -0.42200
H 	H 	0.97846 0.00729 0.19800 0.18300
O 	O 	0.73876 0.00010 0.24108 -0.39900
O 	O 	0.94907 0.04516 0.19181 -0.80600
O 	O 	0.83867 0.01537 0.12760 -0.44800
O 	O 	0.87187 0.94776 0.25569 -0.34900
O 	O 	0.78786 0.94114 0.17988 -0.35700
O 	O 	0.94031 0.06019 0.28562 -0.44000
C 	C 	0.10028 0.13297 0.15076 0.29200
C 	C 	0.02935 0.24462 0.27431 0.34500
C 	C 	0.95888 0.25356 0.14856 0.27300
C 	C 	0.72758 0.00899 0.27542 0.27300
C 	C 	0.06280 0.47506 0.08978 -0.12100
C 	C 	0.03523 0.47874 0.12484 0.10600
C 	C 	0.98760 0.40708 0.14228 -0.08600
C 	C 	0.96980 0.33018 0.12557 0.08100
C 	C 	0.98506 0.33012 0.08812 -0.18300
C 	C 	0.03542 0.40133 0.07104 0.15000
H 	H 	0.96903 0.40999 0.16978 0.12300
H 	H 	0.05348 0.39917 0.04334 0.06100
H 	H 	0.05220 0.53623 0.13901 0.08100
C 	C 	0.94650 0.25627 0.06615 0.80300
F 	F 	0.95088 0.27847 0.02988 -0.46600
F 	F 	0.97941 0.19391 0.07092 -0.49100
F 	F 	0.87208 0.22627 0.07648 -0.45800
C 	C 	0.57730 0.82516 0.10769 -0.08500
C 	C 	0.61492 0.90542 0.09369 0.01100
C 	C 	0.68819 0.94404 0.10242 0.03300
C 	C 	0.72485 0.90251 0.12501 0.00500
C 	C 	0.69152 0.81639 0.13376 -0.10900
C 	C 	0.61631 0.77940 0.12642 0.08700
H 	H 	0.71442 0.00855 0.09393 0.03100
H 	H 	0.58769 0.71648 0.13639 0.07100
H 	H 	0.58583 0.93988 0.07788 0.06100
C 	C 	0.73441 0.76460 0.15197 0.78500
F 	F 	0.72688 0.76841 0.18884 -0.42100
F 	F 	0.70754 0.68220 0.14277 -0.43500
F 	F 	0.80890 0.79299 0.14161 -0.44000
C 	C 	0.14044 0.07273 0.14303 -0.10200
C 	C 	0.17067 0.07171 0.10834 0.04000
C 	C 	0.19029 0.00234 0.09736 -0.09800
C 	C 	0.17877 0.93233 0.12068 0.07200
C 	C 	0.14584 0.93180 0.15542 -0.08800
C 	C 	0.13224 0.00467 0.16709 0.03000
H 	H 	0.21552 0.00346 0.07081 0.06600
H 	H 	0.11071 0.00644 0.19419 0.04100
H 	H 	0.17713 0.12393 0.08952 0.05200
C 	C 	0.12559 0.85444 0.18022 0.78200
F 	F 	0.18736 0.85095 0.19847 -0.45500
F 	F 	0.07028 0.85571 0.20514 -0.43900
F 	F 	0.09957 0.78309 0.16098 -0.43300
C 	C 	0.65273 0.97024 0.29237 -0.02200
C 	C 	0.59177 0.93703 0.27085 0.01900
C 	C 	0.52120 0.89994 0.28654 -0.02700
C 	C 	0.51003 0.89578 0.32393 0.03100
C 	C 	0.57087 0.92956 0.34603 -0.10000
C 	C 	0.64216 0.96604 0.32993 0.07900
H 	H 	0.47489 0.87442 0.26952 0.05200
H 	H 	0.68924 0.99098 0.34652 0.11500
H 	H 	0.59893 0.94005 0.24185 0.07000
C 	C 	0.55942 0.92868 0.38648 0.78300
F 	F 	0.62501 0.96498 0.40334 -0.42200
F 	F 	0.51034 0.97254 0.39476 -0.45400
F 	F 	0.53092 0.84739 0.39979 -0.43600
C 	C 	0.15613 0.45030 0.32960 -0.09600
C 	C 	0.14495 0.36954 0.34417 0.03600
C 	C 	0.11147 0.30046 0.32403 -0.03800
C 	C 	0.08944 0.31152 0.28908 0.02600
C 	C 	0.11107 0.39241 0.27249 -0.12200
C 	C 	0.14203 0.46169 0.29341 0.09800
H 	H 	0.09733 0.23855 0.33659 0.06100
H 	H 	0.15257 0.52429 0.28200 0.06800
H 	H 	0.15728 0.36020 0.37192 0.03800
C 	C 	0.09616 0.40508 0.23339 0.78700
F 	F 	0.02088 0.39064 0.22973 -0.45700
F 	F 	0.13295 0.48524 0.22048 -0.44500
F 	F 	0.12018 0.35042 0.21287 -0.45400
C 	C 	0.06280 0.85474 0.32880 -0.03900
C 	C 	0.08791 0.90741 0.29828 0.01800
C 	C 	0.04068 0.94498 0.28120 0.03700
C 	C 	0.96740 0.93024 0.29418 -0.01300
C 	C 	0.94021 0.87429 0.32413 -0.08100
C 	C 	0.98864 0.83686 0.34129 0.05000
H 	H 	0.06177 0.98772 0.25836 0.06700
H 	H 	0.96944 0.79598 0.36485 0.09000
H 	H 	0.14469 0.92055 0.28813 0.05600
C 	C 	0.86072 0.85657 0.33835 0.77800
F 	F 	0.84424 0.79893 0.36699 -0.42200
F 	F 	0.84946 0.92937 0.34980 -0.42300
F 	F 	0.81235 0.82514 0.31145 -0.41100
C 	C 	0.43080 0.04124 0.50748 -0.07400
C 	C 	0.47159 0.99076 0.49402 0.11200
C 	C 	0.43953 0.92868 0.47019 0.02000
C 	C 	0.36722 0.91836 0.45856 -0.11300
C 	C 	0.32356 0.96241 0.47520 0.24300
C 	C 	0.35537 0.02344 0.49959 -0.11800
H 	H 	0.47204 0.89096 0.45968 0.12900
H 	H 	0.32191 0.05863 0.51151 0.09000
H 	H 	0.52893 0.00153 0.50087 0.03500
O 	O 	0.25030 0.94692 0.46734 -0.26900
H 	H 	0.22256 0.90224 0.48489 0.17700
C 	C 	0.84714 0.41717 0.49272 -0.00200
C 	C 	0.91619 0.41879 0.50610 -0.00800
C 	C 	0.98151 0.45792 0.48594 0.03100
C 	C 	0.97863 0.49582 0.45213 -0.15700
C 	C 	0.90934 0.49071 0.43786 0.22800
C 	C 	0.84395 0.45044 0.45794 -0.08300
H 	H 	0.03455 0.46074 0.49703 0.05900
H 	H 	0.79079 0.44789 0.44702 0.08900
H 	H 	0.91959 0.39361 0.53287 0.06900
O 	O 	0.90526 0.52266 0.40394 -0.28600
H 	H 	0.90354 0.58027 0.40732 0.19400
C 	C 	0.52517 0.52688 0.48000 -0.01600
C 	C 	0.50803 0.49185 0.44646 -0.04100
C 	C 	0.46537 0.52318 0.42318 0.05300
C 	C 	0.44007 0.58944 0.43350 -0.13900
C 	C 	0.47070 0.63499 0.46335 0.21900
C 	C 	0.51340 0.60342 0.48668 -0.07700
H 	H 	0.44498 0.49005 0.39925 0.04100
H 	H 	0.53060 0.63379 0.51160 0.11300
H 	H 	0.52052 0.43493 0.44024 0.03000
O 	O 	0.45495 0.70726 0.47095 -0.24700
H 	H 	0.40991 0.69009 0.48709 0.15500
C 	C 	0.71327 0.10894 0.62276 -0.08900
C 	C 	0.72551 0.10647 0.65972 0.05500
C 	C 	0.75339 0.04536 0.67456 -0.10300
C 	C 	0.76948 0.98652 0.65254 0.09400
C 	C 	0.74160 0.97788 0.61749 -0.08100
C 	C 	0.71751 0.04219 0.60205 0.04900
H 	H 	0.77006 0.04940 0.70222 0.07400
H 	H 	0.70471 0.04170 0.57387 0.08000
H 	H 	0.71835 0.15526 0.67644 0.06200
C 	C 	0.73701 0.90053 0.59689 0.78600
F 	F 	0.68720 0.89137 0.56962 -0.41000
F 	F 	0.80594 0.90533 0.58191 -0.43300
F 	F 	0.71291 0.83080 0.61976 -0.43600
C 	C 	0.23589 0.13963 0.64883 -0.09700
C 	C 	0.27020 0.22581 0.64694 0.04100
C 	C 	0.34481 0.25827 0.63590 -0.04500
C 	C 	0.38678 0.20499 0.62693 0.04000
C 	C 	0.35475 0.11748 0.63370 -0.11300
C 	C 	0.27787 0.08565 0.64189 0.10000
H 	H 	0.36934 0.32519 0.63287 0.07300
H 	H 	0.25138 0.01897 0.64448 0.07000
H 	H 	0.23866 0.26790 0.65351 0.04800
C 	C 	0.40225 0.05908 0.63532 0.76200
F 	F 	0.46316 0.09200 0.65595 -0.42200
F 	F 	0.36317 0.98215 0.65089 -0.36200
F 	F 	0.42547 0.04660 0.60106 -0.45100
C 	C 	0.91020 0.77206 0.63066 -0.04800
C 	C 	0.83278 0.74605 0.63536 0.06000
C 	C 	0.78978 0.67819 0.61737 0.00200
C 	C 	0.82345 0.63485 0.59437 0.03400
C 	C 	0.90071 0.66760 0.58561 -0.09000
C 	C 	0.94414 0.73434 0.60516 0.06000
H 	H 	0.73048 0.65584 0.62318 0.10500
H 	H 	0.00401 0.75495 0.60132 0.10900
H 	H 	0.80615 0.77555 0.65466 0.11900
C 	C 	0.93724 0.63125 0.55624 0.76400
F 	F 	0.88998 0.60616 0.52825 -0.44400
F 	F 	0.00102 0.68977 0.54231 -0.42100
F 	F 	0.95613 0.56369 0.57020 -0.45600
C 	C 	0.90699 0.54530 0.95204 -0.01500
C 	C 	0.91787 0.53460 0.98867 -0.02500
C 	C 	0.98018 0.58633 0.00453 0.01000
C 	C 	0.03339 0.64764 0.98365 -0.11200
C 	C 	0.02013 0.66159 0.94733 0.23300
C 	C 	0.95678 0.61070 0.93173 -0.11900
H 	H 	0.98940 0.57541 0.03257 0.04900
H 	H 	0.94650 0.62197 0.90384 0.08800
H 	H 	0.87800 0.48620 0.00488 0.05400
O 	O 	0.06887 0.72522 0.92717 -0.27900
H 	H 	0.10341 0.69963 0.91494 0.16900
C 	C 	0.51100 0.08734 0.96364 0.01100
C 	C 	0.48393 0.00531 0.95266 -0.16600
C 	C 	0.44481 0.94181 0.97708 0.12200
C 	C 	0.43384 0.95911 0.01311 -0.12000
C 	C 	0.45977 0.04192 0.02408 0.16100
C 	C 	0.49718 0.10593 0.99915 -0.09800
H 	H 	0.42466 0.87852 0.96823 0.01500
H 	H 	0.51667 0.16960 0.00762 0.07200
H 	H 	0.49266 0.99078 0.92506 0.12200
O 	O 	0.44935 0.06032 0.05908 -0.28800
H 	H 	0.49375 0.05560 0.07149 0.14200
C 	C 	0.45388 0.45861 0.93711 -0.02400
C 	C 	0.40035 0.40445 0.96050 -0.04200
C 	C 	0.36416 0.43698 0.98677 0.05000
C 	C 	0.37959 0.52337 0.98861 -0.17400
C 	C 	0.42124 0.57587 0.96055 0.20000
C 	C 	0.45743 0.54285 0.93442 -0.09100
H 	H 	0.32824 0.39557 0.00704 0.03800
H 	H 	0.49542 0.58439 0.91487 0.08400
H 	H 	0.39410 0.33831 0.96136 0.05300
O 	O 	0.43058 0.65991 0.96002 -0.29500
H 	H 	0.38896 0.66760 0.94612 0.12500
C 	C 	0.94751 0.11671 0.81163 -0.08500
C 	C 	0.92620 0.10031 0.84805 0.02000
C 	C 	0.87713 0.13745 0.86399 -0.04100
C 	C 	0.84818 0.19109 0.84371 0.02900
C 	C 	0.87154 0.21076 0.80718 -0.13300
C 	C 	0.92150 0.17311 0.79142 0.08100
H 	H 	0.86000 0.12285 0.89202 0.06200
H 	H 	0.93803 0.18515 0.76322 0.04900
H 	H 	0.94659 0.05735 0.86388 0.03000
C 	C 	0.84107 0.26901 0.78481 0.78500
F 	F 	0.87211 0.28232 0.75023 -0.45400
F 	F 	0.76506 0.23514 0.78265 -0.48700
F 	F 	0.85630 0.34528 0.80063 -0.45000
C 	C 	0.39645 0.13495 0.83620 -0.11600
C 	C 	0.33271 0.14902 0.85121 0.04900
C 	C 	0.26341 0.11166 0.83718 -0.06600
C 	C 	0.25684 0.05986 0.80789 0.06400
C 	C 	0.32044 0.04138 0.79384 -0.19000
C 	C 	0.39026 0.08119 0.80764 0.11900
H 	H 	0.21492 0.12504 0.84839 0.06800
H 	H 	0.43988 0.07141 0.79586 0.05500
H 	H 	0.33689 0.18937 0.87368 0.04000
C 	C 	0.31479 0.98253 0.76320 0.87000
F 	F 	0.30973 0.02359 0.73112 -0.45900
F 	F 	0.37645 0.95450 0.76073 -0.41100
F 	F 	0.25298 0.91345 0.76842 -0.45400
C 	C 	0.74025 0.59355 0.83790 -0.09300
C 	C 	0.75271 0.67070 0.85384 0.03700
C 	C 	0.79045 0.74427 0.83443 -0.04100
C 	C 	0.81527 0.74143 0.79882 0.04000
C 	C 	0.79182 0.66533 0.78099 -0.12300
C 	C 	0.75732 0.59109 0.80120 0.10100
H 	H 	0.80579 0.80269 0.84800 0.06600
H 	H 	0.74614 0.53145 0.78874 0.07800
H 	H 	0.73828 0.67327 0.88203 0.04000
C 	C 	0.80761 0.66256 0.74109 0.78800
F 	F 	0.76404 0.58941 0.72720 -0.44300
F 	F 	0.79235 0.72826 0.72317 -0.45700
F 	F 	0.88141 0.66800 0.73499 -0.44800
