data_crystal

_cell_length_a 26.19725
_cell_length_b 26.53032
_cell_length_c 26.49542
_cell_angle_alpha 95.48724
_cell_angle_beta  95.48660
_cell_angle_gamma 125.83377

_symmetry_space_group_name_	'P 1'
_symmetry_space_group_name_H-M	'P 1'

loop_
_symmetry_equiv_pos_as_xyz
  x,y,z

loop_
_atom_site_label
_atom_site_type_symbol
_atom_site_fract_x
_atom_site_fract_y
_atom_site_fract_z
_atom_site_charge
C 	C 	0.95858 0.02356 0.98186 0.03100
C 	C 	0.02413 0.05888 0.97998 -0.07700
C 	C 	0.05319 0.02845 0.97469 0.03300
C 	C 	0.01680 0.96284 0.97197 -0.07600
C 	C 	0.95114 0.92725 0.97317 0.03200
C 	C 	0.92202 0.95768 0.97777 -0.07800
H 	H 	0.05238 0.10975 0.98268 0.05000
H 	H 	0.03969 0.93961 0.96934 0.05100
H 	H 	0.87111 0.93023 0.97819 0.04900
C 	C 	0.94191 0.00566 0.45430 0.03000
C 	C 	0.00765 0.04062 0.45348 -0.07400
C 	C 	0.03866 0.01207 0.45749 0.03200
C 	C 	0.00373 0.94824 0.46193 -0.07400
C 	C 	0.93792 0.91282 0.46248 0.03000
C 	C 	0.90688 0.94154 0.45846 -0.07500
H 	H 	0.03461 0.08997 0.44986 0.05100
H 	H 	0.02775 0.92615 0.46508 0.05100
H 	H 	0.85608 0.91442 0.45921 0.05000
Cu	Cu	0.63418 0.23900 0.00584 0.93000
Cu	Cu	0.67930 0.23647 0.89518 0.86900
Cu	Cu	0.66547 0.33483 0.93599 0.89800
Cu	Cu	0.64720 0.36323 0.04095 0.90200
C 	C 	0.66413 0.29322 0.11307 0.30900
O 	O 	0.54347 0.20945 0.00881 -0.35300
C 	C 	0.64860 0.29380 0.82464 0.29900
O 	O 	0.69065 0.33744 0.00735 -0.63500
O 	O 	0.62175 0.24228 0.93183 -0.64200
O 	O 	0.66815 0.18871 0.00098 -0.36100
O 	O 	0.73913 0.25188 0.95232 -0.43600
O 	O 	0.63587 0.31936 0.10052 -0.37200
O 	O 	0.71437 0.42568 0.94202 -0.37000
C 	C 	0.72006 0.46576 0.98004 0.28800
C 	C 	0.52134 0.23874 0.98986 0.27500
O 	O 	0.56161 0.29718 0.98297 -0.39800
O 	O 	0.69056 0.44705 0.01966 -0.37900
O 	O 	0.66028 0.25100 0.07888 -0.35500
C 	C 	0.72127 0.21089 0.98320 0.28000
O 	O 	0.64590 0.32930 0.86128 -0.36200
O 	O 	0.64122 0.24179 0.83263 -0.41600
H 	H 	0.73751 0.36348 0.02000 0.17800
H 	H 	0.57674 0.21543 0.91315 0.17500
Cu	Cu	0.74258 0.34392 0.43900 0.92800
Cu	Cu	0.73721 0.29154 0.54685 0.87000
Cu	Cu	0.63889 0.30491 0.50356 0.89900
Cu	Cu	0.61861 0.33310 0.40091 0.89800
C 	C 	0.69609 0.32366 0.33085 0.30900
O 	O 	0.77427 0.43499 0.44005 -0.36000
C 	C 	0.67452 0.31720 0.61570 0.30100
O 	O 	0.64210 0.28717 0.43250 -0.63900
O 	O 	0.73346 0.35055 0.51203 -0.64000
O 	O 	0.79188 0.30833 0.44379 -0.36700
O 	O 	0.72349 0.23502 0.48843 -0.43600
O 	O 	0.66751 0.34937 0.34356 -0.37900
O 	O 	0.54645 0.25443 0.49227 -0.37200
C 	C 	0.50934 0.25673 0.45656 0.29500
C 	C 	0.74258 0.45527 0.45748 0.28200
O 	O 	0.68287 0.41406 0.46247 -0.39600
O 	O 	0.53175 0.28938 0.41918 -0.38900
O 	O 	0.73549 0.32376 0.36595 -0.35100
C 	C 	0.76689 0.25405 0.45919 0.29000
O 	O 	0.63763 0.31714 0.57781 -0.36300
O 	O 	0.72826 0.32600 0.60907 -0.41600
H 	H 	0.61647 0.24161 0.41713 0.17900
H 	H 	0.75884 0.39403 0.53252 0.17600
C 	C 	0.59940 0.25784 0.73145 -0.03700
C 	C 	0.64825 0.30607 0.77161 -0.08700
C 	C 	0.70090 0.36226 0.75981 0.11700
C 	C 	0.70682 0.36740 0.70826 -0.03600
C 	C 	0.66052 0.31703 0.66820 -0.08700
C 	C 	0.60523 0.26308 0.67988 0.11900
Br	Br	0.53907 0.19426 0.62614 -0.26000
H 	H 	0.55805 0.21513 0.74030 0.06300
H 	H 	0.74876 0.40961 0.69941 0.06200
Br	Br	0.76736 0.43089 0.81352 -0.26000
C 	C 	0.73973 0.36397 0.25312 -0.03300
C 	C 	0.69882 0.31232 0.27619 -0.08200
C 	C 	0.65410 0.25193 0.24522 0.12100
C 	C 	0.64681 0.24478 0.19135 -0.03200
C 	C 	0.68367 0.29767 0.16817 -0.08300
C 	C 	0.73237 0.35690 0.19933 0.12200
Br	Br	0.78816 0.42898 0.16897 -0.27000
H 	H 	0.77535 0.41028 0.27694 0.06700
H 	H 	0.61011 0.19878 0.16755 0.07000
Br	Br	0.60057 0.17933 0.27576 -0.25900
C 	C 	0.82851 0.73451 0.42660 -0.03800
C 	C 	0.84750 0.71811 0.46955 0.00100
C 	C 	0.89198 0.76543 0.51203 -0.03900
C 	C 	0.91886 0.82888 0.51090 -0.03700
C 	C 	0.90177 0.84559 0.46713 -0.00200
C 	C 	0.85557 0.79801 0.42539 -0.03700
C 	C 	0.82157 0.65151 0.46962 0.02700
H 	H 	0.90633 0.75315 0.54560 0.04000
H 	H 	0.95426 0.86523 0.54343 0.03900
H 	H 	0.84217 0.81039 0.39139 0.03900
H 	H 	0.79387 0.69822 0.39375 0.04100
C 	C 	0.75635 0.60637 0.46997 -0.06500
C 	C 	0.73102 0.54275 0.46756 0.01200
C 	C 	0.77069 0.52342 0.46448 -0.08600
C 	C 	0.83645 0.56906 0.46549 0.01400
C 	C 	0.86171 0.63278 0.46801 -0.06400
H 	H 	0.72512 0.62049 0.47162 0.04700
H 	H 	0.68030 0.50836 0.46704 0.03200
H 	H 	0.86789 0.55521 0.46384 0.03700
H 	H 	0.91227 0.66744 0.46799 0.04800
C 	C 	0.84369 0.05824 0.40355 -0.03800
C 	C 	0.86199 0.10706 0.44415 0.00100
C 	C 	0.90354 0.11978 0.48924 -0.03900
C 	C 	0.92766 0.08496 0.49329 -0.03800
C 	C 	0.91045 0.03703 0.45232 -0.00200
C 	C 	0.86784 0.02334 0.40764 -0.03600
C 	C 	0.83641 0.14384 0.44012 0.02700
H 	H 	0.91723 0.15674 0.52108 0.03700
H 	H 	0.96051 0.09584 0.52794 0.03800
H 	H 	0.85452 0.98664 0.37571 0.03900
H 	H 	0.81134 0.04778 0.36871 0.04200
C 	C 	0.87834 0.20971 0.44341 -0.06600
C 	C 	0.85505 0.24562 0.44634 0.01400
C 	C 	0.78968 0.21592 0.44621 -0.09000
C 	C 	0.74730 0.14964 0.43985 0.01700
C 	C 	0.77058 0.11382 0.43692 -0.06600
H 	H 	0.92917 0.23325 0.44519 0.04700
H 	H 	0.88823 0.29665 0.45094 0.03300
H 	H 	0.69658 0.12604 0.43877 0.03600
H 	H 	0.73774 0.06297 0.43390 0.04800
C 	C 	0.21764 0.13702 0.49693 -0.03800
C 	C 	0.24005 0.11807 0.45907 0.00200
C 	C 	0.19632 0.06479 0.42032 -0.03800
C 	C 	0.13053 0.03057 0.41947 -0.03500
C 	C 	0.10801 0.04922 0.45754 -0.00200
C 	C 	0.15185 0.10263 0.49626 -0.03600
C 	C 	0.30924 0.15430 0.45970 0.02800
H 	H 	0.21333 0.05005 0.39083 0.04200
H 	H 	0.09705 0.98958 0.38929 0.04000
H 	H 	0.13494 0.11719 0.52598 0.03900
H 	H 	0.25118 0.17817 0.52695 0.04200
C 	C 	0.34184 0.21156 0.44165 -0.06400
C 	C 	0.40725 0.24523 0.44094 0.01600
C 	C 	0.44068 0.22194 0.45844 -0.08200
C 	C 	0.40805 0.16492 0.47712 0.01900
C 	C 	0.34255 0.13118 0.47760 -0.06200
H 	H 	0.31640 0.22975 0.42789 0.04800
H 	H 	0.43198 0.28951 0.42701 0.03400
H 	H 	0.43318 0.14631 0.49058 0.04500
H 	H 	0.31764 0.08699 0.49168 0.05200
C 	C 	0.83182 0.64356 0.01669 -0.05600
C 	C 	0.81822 0.66110 0.97188 0.02100
C 	C 	0.77459 0.61417 0.92880 -0.06100
C 	C 	0.74415 0.55030 0.93082 0.01900
C 	C 	0.75624 0.53282 0.97623 -0.08600
C 	C 	0.80052 0.57969 0.01899 0.02100
C 	C 	0.84903 0.72851 0.97041 -0.00300
H 	H 	0.76362 0.62714 0.89406 0.04900
H 	H 	0.70996 0.51439 0.89761 0.04500
H 	H 	0.81055 0.56661 0.05406 0.03600
H 	H 	0.86627 0.67942 0.04983 0.04800
C 	C 	0.84590 0.76611 0.00917 -0.03300
C 	C 	0.87835 0.83074 0.00962 -0.02900
C 	C 	0.91322 0.85820 0.97074 -0.01000
C 	C 	0.91438 0.82014 0.93092 -0.03500
C 	C 	0.88297 0.75574 0.93103 -0.03900
H 	H 	0.81903 0.74538 0.03931 0.04000
H 	H 	0.87726 0.85967 0.04061 0.03800
H 	H 	0.94048 0.84069 0.90036 0.03800
H 	H 	0.88574 0.72720 0.90095 0.04200
C 	C 	0.86039 0.20258 0.00154 -0.05500
C 	C 	0.82870 0.13775 0.00082 0.02700
C 	C 	0.76245 0.09832 0.00010 -0.04600
C 	C 	0.72767 0.12296 0.99742 -0.00200
C 	C 	0.75884 0.18715 0.99511 -0.08400
C 	C 	0.82564 0.22717 0.99867 0.00200
C 	C 	0.86396 0.11044 0.99696 -0.01100
H 	H 	0.73763 0.04824 0.99988 0.03800
H 	H 	0.67619 0.09163 0.99491 0.03500
H 	H 	0.85042 0.27703 0.99791 0.03500
H 	H 	0.91168 0.23357 0.00296 0.04700
C 	C 	0.89189 0.11335 0.95362 -0.03700
C 	C 	0.92382 0.08602 0.94915 -0.03700
C 	C 	0.92802 0.05545 0.98793 -0.00900
C 	C 	0.90076 0.05318 0.03157 -0.03100
C 	C 	0.86883 0.08056 0.03605 -0.03000
H 	H 	0.88816 0.13613 0.92314 0.03600
H 	H 	0.94447 0.08776 0.91524 0.03800
H 	H 	0.90398 0.02987 0.06180 0.03900
H 	H 	0.84771 0.07837 0.06976 0.04100
C 	C 	0.20661 0.08189 0.92887 -0.03800
C 	C 	0.25254 0.12449 0.97278 -0.00600
C 	C 	0.23310 0.13868 0.01606 -0.03100
C 	C 	0.16804 0.10913 0.01596 -0.03000
C 	C 	0.12195 0.06519 0.97258 -0.00900
C 	C 	0.14157 0.05243 0.92874 -0.03600
C 	C 	0.32082 0.15317 0.97392 0.02800
H 	H 	0.26829 0.17168 0.05008 0.04100
H 	H 	0.15334 0.11914 0.05003 0.04000
H 	H 	0.10632 0.01879 0.89497 0.03800
H 	H 	0.22126 0.07114 0.89512 0.04000
C 	C 	0.34195 0.11525 0.97291 -0.06600
C 	C 	0.40722 0.14289 0.97683 0.01400
C 	C 	0.45197 0.20880 0.98189 -0.08600
C 	C 	0.43040 0.24645 0.98157 0.01300
C 	C 	0.36518 0.21872 0.97766 -0.06700
H 	H 	0.30791 0.06450 0.96983 0.04700
H 	H 	0.42296 0.11314 0.97630 0.03300
H 	H 	0.46424 0.29732 0.98543 0.03100
H 	H 	0.34920 0.24828 0.97812 0.04600
