data_crystal

_cell_length_a 29.74091
_cell_length_b 27.46158
_cell_length_c 18.72641
_cell_angle_alpha 92.66647
_cell_angle_beta  85.32142
_cell_angle_gamma 124.23270

_symmetry_space_group_name_	'P 1'
_symmetry_space_group_name_H-M	'P 1'

loop_
_symmetry_equiv_pos_as_xyz
  x,y,z

loop_
_atom_site_label
_atom_site_type_symbol
_atom_site_fract_x
_atom_site_fract_y
_atom_site_fract_z
_atom_site_charge
C 	C 	0.05249 0.03751 0.14451 0.05500
C 	C 	0.04270 0.08182 0.15114 -0.02700
C 	C 	0.10197 0.05342 0.17209 -0.05300
S 	S 	0.09401 0.13885 0.19243 0.02800
C 	C 	0.13045 0.11024 0.20148 0.00700
H 	H 	0.11741 0.02580 0.16803 0.08100
C 	C 	0.30238 0.19700 0.18537 0.03000
C 	C 	0.27013 0.14819 0.23076 -0.00300
C 	C 	0.21409 0.12265 0.24116 -0.02400
C 	C 	0.19002 0.14584 0.20629 0.03300
C 	C 	0.22338 0.19839 0.16702 -0.01600
C 	C 	0.27949 0.22426 0.15744 0.00400
H 	H 	0.28794 0.12818 0.25478 0.07200
H 	H 	0.18892 0.08290 0.27287 0.05400
H 	H 	0.20562 0.21741 0.14066 0.07400
H 	H 	0.30466 0.26350 0.12483 0.09300
C 	C 	0.04907 0.97969 0.36359 0.04000
C 	C 	0.04696 0.02751 0.34465 -0.02900
C 	C 	0.09284 0.99680 0.40669 -0.06500
S 	S 	0.09633 0.08799 0.38432 0.02600
H 	H 	0.01478 0.10738 0.33565 0.06000
C 	C 	0.12255 0.05685 0.42379 0.01900
H 	H 	0.09929 0.96591 0.42971 0.08000
C 	C 	0.27629 0.14871 0.51825 0.03600
C 	C 	0.26557 0.10813 0.46280 -0.00300
C 	C 	0.21558 0.07844 0.43144 -0.02300
C 	C 	0.17617 0.08977 0.45457 0.02800
C 	C 	0.18767 0.13185 0.50835 -0.01800
C 	C 	0.23759 0.16129 0.53999 -0.00200
H 	H 	0.29589 0.09944 0.44427 0.09000
H 	H 	0.20761 0.04692 0.38899 0.06500
H 	H 	0.15767 0.14113 0.52636 0.07300
H 	H 	0.24600 0.19343 0.58178 0.08900
C 	C 	0.32942 0.18047 0.55078 0.08600
H 	H 	0.36045 0.25949 0.49103 0.10000
C 	C 	0.29637 0.09386 0.63397 0.79100
F 	F 	0.28186 0.04914 0.58464 -0.42400
F 	F 	0.25111 0.09451 0.65564 -0.41900
C 	C 	0.39985 0.24977 0.21034 0.01000
C 	C 	0.35888 0.21669 0.16266 0.08700
H 	H 	0.38907 0.25884 0.26362 0.09800
C 	C 	0.32823 0.16317 0.04272 0.78300
F 	F 	0.30888 0.19314 0.01451 -0.42700
F 	F 	0.28554 0.11357 0.07839 -0.43000
C 	C 	0.34118 0.15239 0.60039 -0.12100
F 	F 	0.31333 0.08208 0.69365 -0.39900
C 	C 	0.37032 0.23740 0.52686 0.01500
C 	C 	0.39576 0.17753 0.61497 0.07600
C 	C 	0.43768 0.23181 0.58489 0.01500
C 	C 	0.42423 0.26458 0.54603 -0.06500
C 	C 	0.46727 0.32769 0.52358 0.77800
H 	H 	0.40608 0.15326 0.64616 0.09800
F 	F 	0.44450 0.35407 0.49497 -0.39900
F 	F 	0.50403 0.32887 0.47236 -0.40400
C 	C 	0.37224 0.20334 0.09336 -0.12400
C 	C 	0.42735 0.22968 0.07041 0.07700
C 	C 	0.46843 0.26388 0.11758 0.00300
C 	C 	0.45442 0.27111 0.18953 -0.06400
C 	C 	0.49734 0.30082 0.24416 0.77400
H 	H 	0.43846 0.22408 0.01557 0.09500
F 	F 	0.47408 0.29346 0.31333 -0.39800
F 	F 	0.53148 0.36048 0.22994 -0.39200
F 	F 	0.52768 0.27674 0.24095 -0.42300
F 	F 	0.34824 0.14439 0.98660 -0.39500
C 	C 	0.52580 0.29215 0.09111 0.30500
O 	O 	0.55942 0.34836 0.08473 -0.27800
O 	O 	0.54285 0.26508 0.05187 -0.29300
C 	C 	0.49360 0.24595 0.57922 0.28300
O 	O 	0.53497 0.29597 0.59937 -0.26200
O 	O 	0.50894 0.22359 0.52899 -0.28000
F 	F 	0.49451 0.36054 0.58236 -0.39900
Co	Co	0.61797 0.34615 0.01729 1.19600
O 	O 	0.65317 0.30573 0.93757 -0.41700
O 	O 	0.60318 0.33353 0.90564 -0.27300
O 	O 	0.66780 0.33050 0.06487 -0.42200
C 	C 	0.63652 0.31865 0.88437 0.28600
Co	Co	0.59320 0.29635 0.52771 1.20100
O 	O 	0.62483 0.27060 0.42501 -0.42400
O 	O 	0.59435 0.32501 0.42245 -0.25200
O 	O 	0.62495 0.24988 0.55026 -0.42400
C 	C 	0.61950 0.30463 0.38657 0.29400
C 	C 	0.64025 0.30025 0.81081 0.07700
N 	N 	0.60573 0.29445 0.76269 -0.02200
N 	N 	0.61115 0.28101 0.69462 -0.05200
C 	C 	0.65085 0.33007 0.31877 0.05700
N 	N 	0.64208 0.36437 0.28053 0.00600
N 	N 	0.66354 0.37969 0.21363 -0.02400
F 	F 	0.67417 0.51857 0.93621 -0.40100
O 	O 	0.67767 0.43127 0.00500 -0.34700
C 	C 	0.70611 0.36512 0.10637 0.27700
O 	O 	0.66452 0.36871 0.54788 -0.34600
C 	C 	0.65892 0.26086 0.59759 0.29600
C 	C 	0.65188 0.27416 0.67259 0.06800
N 	N 	0.68054 0.29268 0.78892 -0.04900
C 	C 	0.69517 0.36205 0.18362 0.08600
Co	Co	0.73077 0.34851 0.97029 1.20300
C 	C 	0.72904 0.45322 0.98181 0.35700
O 	O 	0.67864 0.20021 0.42558 -0.29900
N 	N 	0.68641 0.28003 0.72068 -0.02400
N 	N 	0.70648 0.33055 0.22330 -0.00100
N 	N 	0.68439 0.31451 0.28993 -0.04100
C 	C 	0.72656 0.54429 0.90548 0.77500
F 	F 	0.72767 0.50567 0.85637 -0.40700
F 	F 	0.74080 0.59405 0.86844 -0.40400
O 	O 	0.73209 0.27226 0.98276 -0.26000
O 	O 	0.74229 0.42295 0.93845 -0.51300
Co	Co	0.69464 0.28403 0.45906 1.19600
C 	C 	0.70458 0.39592 0.49760 0.34100
O 	O 	0.70574 0.27477 0.56818 -0.28700
O 	O 	0.75321 0.37965 0.07746 -0.25600
O 	O 	0.72934 0.37115 0.46782 -0.49300
H 	H 	0.67784 0.44081 0.39907 0.09100
F 	F 	0.74429 0.45515 0.63578 -0.39900
C 	C 	0.77000 0.51641 0.99321 -0.01600
C 	C 	0.76537 0.55976 0.96354 -0.05800
C 	C 	0.77313 0.28986 0.93709 0.28400
H 	H 	0.76985 0.44377 0.89643 0.24300
C 	C 	0.72175 0.22283 0.38238 0.31300
C 	C 	0.71297 0.47468 0.42644 0.08000
C 	C 	0.72927 0.45898 0.48438 -0.02700
F 	F 	0.67565 0.50236 0.31626 -0.39700
F 	F 	0.72075 0.21512 0.23204 -0.41300
H 	H 	0.76616 0.39695 0.44073 0.22600
F 	F 	0.72215 0.59617 0.35280 -0.42300
H 	H 	0.72797 0.15303 0.46962 0.09900
C 	C 	0.79538 0.61737 0.99092 0.02800
H 	H 	0.78905 0.64989 0.97281 0.10000
H 	H 	0.78758 0.66922 0.48316 0.09400
O 	O 	0.78901 0.34024 0.91081 -0.28200
O 	O 	0.74868 0.27949 0.38470 -0.29200
F 	F 	0.73541 0.07861 0.51608 -0.40200
H 	H 	0.77812 0.21030 0.85618 0.09700
F 	F 	0.81086 0.32794 0.09124 -0.39000
C 	C 	0.77394 0.50303 0.52241 -0.05400
C 	C 	0.74929 0.15785 0.41792 0.07600
C 	C 	0.74910 0.19220 0.36496 0.00200
C 	C 	0.80986 0.53297 0.04161 0.06700
C 	C 	0.74303 0.53319 0.40187 -0.12100
C 	C 	0.72592 0.54882 0.33708 0.78700
H 	H 	0.79492 0.11812 0.06920 0.09500
C 	C 	0.78962 0.48765 0.58881 0.77200
H 	H 	0.81390 0.49965 0.06267 0.09500
C 	C 	0.80426 0.22528 0.90046 0.07800
C 	C 	0.81089 0.27184 0.94333 0.02200
F 	F 	0.78347 0.09179 0.90841 -0.41500
F 	F 	0.81098 0.45499 0.56946 -0.42100
F 	F 	0.76516 0.04010 0.43320 -0.42300
H 	H 	0.80677 0.67085 0.16516 0.11300
H 	H 	0.78795 0.04635 0.26426 0.07800
C 	C 	0.77384 0.23188 0.23688 0.78000
C 	C 	0.77591 0.09246 0.46273 0.79000
C 	C 	0.83309 0.63327 0.04239 0.07300
F 	F 	0.79745 0.14112 0.80768 -0.40000
C 	C 	0.81893 0.68079 0.44063 0.00300
C 	C 	0.80505 0.56124 0.49664 0.00700
C 	C 	0.79054 0.57633 0.43613 0.09100
C 	C 	0.77796 0.13119 0.40534 -0.12300
C 	C 	0.77692 0.19893 0.29717 -0.07000
C 	C 	0.84246 0.59155 0.06560 -0.11000
H 	H 	0.84804 0.77229 0.44225 0.07400
F 	F 	0.82820 0.53762 0.62460 -0.40400
C 	C 	0.84594 0.29267 0.00050 -0.06200
C 	C 	0.82782 0.19529 0.91760 -0.12700
C 	C 	0.85633 0.34491 0.04583 0.77800
C 	C 	0.83568 0.12849 0.05723 0.01400
H 	H 	0.82375 0.06255 0.12869 0.06600
C 	C 	0.81906 0.14396 0.87171 0.79400
F 	F 	0.86772 0.39068 0.00288 -0.42300
H 	H 	0.84111 0.59486 0.52291 0.10400
F 	F 	0.79119 0.22023 0.17141 -0.42700
C 	C 	0.84234 0.70610 0.13511 -0.01200
C 	C 	0.86244 0.69373 0.07143 0.05000
C 	C 	0.82538 0.63752 0.40940 0.03500
C 	C 	0.85300 0.73910 0.41717 -0.02200
C 	C 	0.80914 0.17615 0.28664 0.01200
C 	C 	0.81024 0.14294 0.34028 0.08300
F 	F 	0.80665 0.29178 0.24968 -0.38900
C 	C 	0.85690 0.21145 0.98017 0.11800
C 	C 	0.85214 0.09731 0.09132 -0.03500
C 	C 	0.82611 0.06791 0.28979 -0.01000
F 	F 	0.76396 0.56331 0.28013 -0.42000
C 	C 	0.86757 0.26120 0.01922 0.00800
H 	H 	0.83847 0.99966 0.26059 0.05200
F 	F 	0.82530 0.12158 0.49383 -0.42000
F 	F 	0.86971 0.62158 0.18396 -0.43000
C 	C 	0.87216 0.17390 0.00906 0.00500
H 	H 	0.85144 0.77338 0.20817 0.06200
C 	C 	0.88540 0.60878 0.11818 0.78800
C 	C 	0.99761 0.01786 0.32592 0.05200
H 	H 	0.89067 0.27366 0.06638 0.11400
F 	F 	0.90038 0.36595 0.08704 -0.39400
C 	C 	0.86771 0.76416 0.15958 -0.01900
F 	F 	0.89266 0.56395 0.12751 -0.40200
F 	F 	0.86813 0.14988 0.85561 -0.42000
H 	H 	0.87335 0.88386 0.13336 0.06800
H 	H 	0.87225 0.83631 0.31483 0.06800
H 	H 	0.83356 0.18432 0.23678 0.08200
C 	C 	0.84513 0.12047 0.32775 0.03100
C 	C 	0.90778 0.73975 0.03220 -0.02000
C 	C 	0.85458 0.04118 0.28836 -0.00800
S 	S 	0.89524 0.00869 0.11227 0.05300
C 	C 	0.90548 0.11187 0.07842 0.04600
H 	H 	0.92295 0.73064 0.98236 0.10300
C 	C 	0.89405 0.75470 0.36238 0.03300
C 	C 	0.86686 0.65317 0.35540 0.01000
C 	C 	0.98463 0.06044 0.33226 -0.05800
C 	C 	0.91671 0.90376 0.13453 -0.05600
C 	C 	0.92354 0.08126 0.11797 -0.00700
C 	C 	0.92519 0.18780 0.99510 0.03700
C 	C 	0.91339 0.81017 0.12063 0.02600
S 	S 	0.89669 0.96180 0.32450 0.04000
C 	C 	0.91308 0.85288 0.32905 -0.06000
C 	C 	0.93321 0.79769 0.05667 -0.01300
H 	H 	0.87283 0.62020 0.33209 0.11900
F 	F 	0.93496 0.65776 0.09340 -0.42900
C 	C 	0.94607 0.00831 0.14260 -0.02700
C 	C 	0.93913 0.87145 0.14514 0.00300
C 	C 	0.94164 0.15652 0.02901 -0.04700
H 	H 	0.95377 0.22320 0.95854 0.08500
C 	C 	0.93133 0.81652 0.33960 0.00300
C 	C 	0.89547 0.14909 0.35848 -0.00100
C 	C 	0.90275 0.06720 0.32441 0.02700
H 	H 	0.91117 0.19063 0.38619 0.09100
C 	C 	0.90079 0.71150 0.33154 -0.01500
C 	C 	0.00058 0.92321 0.36664 -0.03500
C 	C 	0.95664 0.96508 0.12601 0.04100
C 	C 	0.97630 0.10829 0.14096 -0.04900
H 	H 	0.98250 0.16721 0.01714 0.07500
H 	H 	0.96766 0.83299 0.02522 0.07200
C 	C 	0.95170 0.95979 0.31961 -0.04400
C 	C 	0.95241 0.91286 0.34374 0.05200
C 	C 	0.92844 0.03482 0.33236 0.02000
C 	C 	0.92387 0.12225 0.35766 -0.01500
H 	H 	0.93243 0.72314 0.28940 0.09600
C 	C 	0.00999 0.97997 0.12816 -0.03500
S 	S 	0.00693 0.91914 0.14411 0.04100
H 	H 	0.00639 0.15540 0.13859 0.06100
C 	C 	0.98917 0.06722 0.15445 0.03700
H 	H 	0.96096 0.14306 0.38550 0.07000
S 	S 	0.99514 0.85958 0.36617 0.05800
