data_crystal

_cell_length_a 26.19642
_cell_length_b 29.01882
_cell_length_c 30.04459
_cell_angle_alpha 61.06455
_cell_angle_beta  118.61175
_cell_angle_gamma 133.21042

_symmetry_space_group_name_	'P 1'
_symmetry_space_group_name_H-M	'P 1'

loop_
_symmetry_equiv_pos_as_xyz
  x,y,z

loop_
_atom_site_label
_atom_site_type_symbol
_atom_site_fract_x
_atom_site_fract_y
_atom_site_fract_z
_atom_site_charge
C 	C 	0.75346 0.33408 0.01776 0.13000
N 	N 	0.68105 0.30343 0.00039 -0.13100
C 	C 	0.64940 0.32076 0.00778 0.12400
N 	N 	0.69045 0.37018 0.03086 -0.13500
C 	C 	0.76233 0.40016 0.04927 0.12900
N 	N 	0.79414 0.38210 0.04289 -0.13300
C 	C 	0.83084 0.34353 0.60227 0.12700
N 	N 	0.87377 0.40960 0.59382 -0.12800
C 	C 	0.85862 0.43811 0.60584 0.12900
N 	N 	0.80113 0.40076 0.62644 -0.13400
C 	C 	0.75894 0.33494 0.63584 0.13000
N 	N 	0.77357 0.30631 0.62344 -0.13600
C 	C 	0.21154 0.60800 0.26209 0.12800
N 	N 	0.17479 0.54424 0.26453 -0.13200
C 	C 	0.19554 0.52782 0.24420 0.13100
N 	N 	0.25188 0.57513 0.22099 -0.13500
C 	C 	0.29196 0.63779 0.22226 0.12900
N 	N 	0.27134 0.65449 0.24232 -0.13500
C 	C 	0.20369 0.64510 0.67754 0.12900
N 	N 	0.15882 0.57956 0.68330 -0.13300
C 	C 	0.17626 0.55041 0.67487 0.13100
N 	N 	0.23820 0.58684 0.66005 -0.13400
C 	C 	0.28301 0.65240 0.65363 0.12900
N 	N 	0.26516 0.68175 0.66161 -0.13300
Co	Co	0.09808 0.97874 0.17161 1.18800
Co	Co	0.89360 0.95040 0.12878 1.18700
Co	Co	0.03337 0.02211 0.20106 1.19100
Co	Co	0.95945 0.90401 0.10264 1.19400
C 	C 	0.14917 0.89734 0.23079 0.30700
Co	Co	0.08921 0.89979 0.11851 1.17000
Co	Co	0.90507 0.01861 0.19731 1.18000
C 	C 	0.98761 0.90726 0.01419 0.34800
O 	O 	0.97665 0.11407 0.16340 -0.37400
O 	O 	0.94764 0.99754 0.17201 -0.76000
C 	C 	0.04636 0.14370 0.18305 0.28300
O 	O 	0.12260 0.03054 0.21438 -0.43700
O 	O 	0.87093 0.89877 0.08636 -0.44000
C 	C 	0.84041 0.03150 0.08328 0.30400
O 	O 	0.00387 0.98404 0.13580 -0.59200
C 	C 	0.99821 0.99137 0.29715 0.36300
C 	C 	0.19177 0.04701 0.09521 0.30300
C 	C 	0.94932 0.77932 0.14385 0.31000
O 	O 	0.07939 0.12025 0.18921 -0.36300
O 	O 	0.15391 0.99472 0.07802 -0.39100
O 	O 	0.18918 0.04254 0.14056 -0.36700
O 	O 	0.82561 0.00650 0.12880 -0.38900
O 	O 	0.86555 0.01233 0.07226 -0.36800
O 	O 	0.98039 0.03173 0.26826 -0.39000
O 	O 	0.01346 0.97272 0.27564 -0.38200
O 	O 	0.01938 0.80919 0.15991 -0.40200
O 	O 	0.92015 0.80590 0.13848 -0.37800
O 	O 	0.04694 0.93401 0.12814 -0.77500
C 	C 	0.79228 0.88096 0.19821 0.29800
O 	O 	0.84082 0.92030 0.22955 -0.38400
O 	O 	0.81216 0.87320 0.17057 -0.37700
O 	O 	0.16781 0.91980 0.18732 -0.39800
O 	O 	0.10803 0.90777 0.23148 -0.39100
O 	O 	0.01191 0.87301 0.04999 -0.41100
O 	O 	0.96560 0.92787 0.02720 -0.35300
Co	Co	0.12674 0.01298 0.68499 1.19000
Co	Co	0.90888 0.96340 0.61815 1.18700
Co	Co	0.01832 0.01311 0.71070 1.19100
Co	Co	0.01891 0.96336 0.59371 1.17600
C 	C 	0.17457 0.93006 0.72704 0.31200
Co	Co	0.17637 0.99727 0.61562 1.16400
Co	Co	0.86724 0.98581 0.68985 1.16900
C 	C 	0.07638 0.99750 0.50864 0.29300
O 	O 	0.93999 0.08580 0.67545 -0.36800
O 	O 	0.93797 0.99150 0.66930 -0.76400
C 	C 	0.00634 0.11508 0.70440 0.28100
O 	O 	0.11351 0.02607 0.73792 -0.43600
O 	O 	0.91780 0.93818 0.57135 -0.43300
C 	C 	0.84025 0.03138 0.57461 0.32200
O 	O 	0.02876 0.01331 0.63986 -0.57600
C 	C 	0.94509 0.94684 0.79596 0.34000
C 	C 	0.27359 0.11542 0.65515 0.29800
C 	C 	0.03399 0.86455 0.60528 0.25900
O 	O 	0.04918 0.09961 0.71466 -0.36600
O 	O 	0.24426 0.09537 0.61268 -0.37300
O 	O 	0.23358 0.09620 0.68403 -0.36200
O 	O 	0.80799 0.98999 0.61337 -0.41200
O 	O 	0.87844 0.02454 0.56474 -0.36700
O 	O 	0.91967 0.98142 0.76843 -0.39700
O 	O 	0.97344 0.94114 0.77414 -0.36100
O 	O 	0.10474 0.89775 0.62031 -0.38100
O 	O 	0.99974 0.87370 0.61765 -0.37000
O 	O 	0.10546 0.00042 0.62748 -0.74900
C 	C 	0.77800 0.85903 0.66573 0.29600
O 	O 	0.80367 0.88571 0.70327 -0.38300
O 	O 	0.82193 0.87019 0.64566 -0.37300
O 	O 	0.21810 0.97752 0.69547 -0.40900
O 	O 	0.12614 0.93169 0.72795 -0.39600
O 	O 	0.14303 0.01789 0.53444 -0.36500
O 	O 	0.04151 0.00598 0.52096 -0.33400
C 	C 	0.02959 0.93334 0.94051 -0.09700
C 	C 	0.97549 0.91449 0.95840 -0.10800
C 	C 	0.90836 0.89757 0.92399 0.34300
C 	C 	0.89607 0.90076 0.87212 -0.08600
C 	C 	0.95154 0.92365 0.85317 -0.10900
C 	C 	0.01804 0.93857 0.88806 0.32700
F 	F 	0.07262 0.96123 0.87073 -0.44300
H 	H 	0.08126 0.94553 0.96693 0.09200
H 	H 	0.84442 0.88876 0.84576 0.09600
F 	F 	0.85505 0.87834 0.94060 -0.43100
C 	C 	0.09502 0.98947 0.43857 -0.09900
C 	C 	0.05033 0.98447 0.45676 -0.12400
C 	C 	0.98133 0.96670 0.42543 0.33900
C 	C 	0.96103 0.96142 0.37471 -0.06600
C 	C 	0.00908 0.97378 0.35456 -0.15500
C 	C 	0.07443 0.98402 0.38784 0.35100
F 	F 	0.12017 0.99291 0.37008 -0.43900
H 	H 	0.14657 0.99926 0.46317 0.10000
H 	H 	0.90925 0.95105 0.35001 0.08900
F 	F 	0.93411 0.95505 0.44366 -0.43800
C 	C 	0.13628 0.38604 0.74908 -0.02200
C 	C 	0.08680 0.35166 0.70959 0.00800
C 	C 	0.05567 0.37859 0.66267 -0.04000
C 	C 	0.07969 0.44238 0.65262 -0.00200
C 	C 	0.13491 0.47924 0.68998 -0.01400
C 	C 	0.15966 0.44951 0.73919 -0.01600
C 	C 	0.07380 0.29138 0.71452 0.03200
C 	C 	0.02350 0.23170 0.74223 -0.07000
C 	C 	0.00725 0.17375 0.74433 0.01900
C 	C 	0.03808 0.17508 0.71562 -0.07000
C 	C 	0.09211 0.23510 0.69103 0.01500
C 	C 	0.11110 0.29334 0.69121 -0.03900
C 	C 	0.96066 0.11343 0.77723 0.09900
C 	C 	0.16856 0.35488 0.66722 0.10300
C 	C 	0.16573 0.35764 0.79891 0.09300
C 	C 	0.04952 0.47058 0.60318 0.08800
N 	N 	0.92338 0.06529 0.80373 -0.09300
N 	N 	0.21457 0.40422 0.64801 -0.10600
N 	N 	0.02547 0.49328 0.56357 -0.10500
N 	N 	0.18930 0.33484 0.83882 -0.10300
H 	H 	0.20054 0.47730 0.76858 0.05800
H 	H 	0.01558 0.35113 0.63299 0.05200
H 	H 	0.99708 0.23045 0.76210 0.07300
H 	H 	0.11736 0.23636 0.67010 0.04500
C 	C 	0.42088 0.69724 0.60175 -0.02200
C 	C 	0.48555 0.73630 0.63477 0.01200
C 	C 	0.48407 0.75657 0.66787 -0.04000
C 	C 	0.41835 0.73292 0.67227 -0.00200
C 	C 	0.35304 0.69054 0.64142 -0.01400
C 	C 	0.35533 0.67580 0.60447 -0.01600
C 	C 	0.55473 0.75337 0.63729 0.02800
C 	C 	0.58855 0.79871 0.59540 -0.05600
C 	C 	0.65999 0.82520 0.60140 0.02800
C 	C 	0.69968 0.81028 0.65081 -0.07900
C 	C 	0.66312 0.75878 0.69026 0.01800
C 	C 	0.59061 0.72976 0.68352 -0.04100
C 	C 	0.69242 0.86818 0.55698 0.08200
C 	C 	0.55392 0.67699 0.72464 0.10000
C 	C 	0.42092 0.67688 0.56639 0.09500
C 	C 	0.41849 0.74986 0.71034 0.09300
N 	N 	0.71824 0.90243 0.52126 -0.09900
N 	N 	0.52446 0.63471 0.75756 -0.10500
N 	N 	0.41864 0.76344 0.74086 -0.10100
N 	N 	0.42096 0.66060 0.53805 -0.10400
H 	H 	0.30553 0.64469 0.57971 0.05700
H 	H 	0.53405 0.78838 0.69207 0.05500
H 	H 	0.56006 0.81471 0.55879 0.06400
H 	H 	0.69244 0.74451 0.72749 0.05000
C 	C 	0.18118 0.76240 0.67378 -0.02600
C 	C 	0.16935 0.73905 0.72388 0.01000
C 	C 	0.16544 0.68301 0.75775 -0.04300
C 	C 	0.17680 0.65196 0.74323 -0.00200
C 	C 	0.18915 0.67558 0.69316 -0.01500
C 	C 	0.18987 0.72999 0.65845 -0.02000
C 	C 	0.16926 0.77726 0.74320 0.02800
C 	C 	0.10414 0.76469 0.73629 -0.06100
C 	C 	0.10486 0.80969 0.74310 0.03800
C 	C 	0.17079 0.87000 0.75199 -0.08500
C 	C 	0.23497 0.87638 0.76854 0.01700
C 	C 	0.23465 0.83061 0.76360 -0.04100
C 	C 	0.03890 0.79246 0.74382 0.07000
C 	C 	0.30183 0.84057 0.77668 0.09700
C 	C 	0.18870 0.82175 0.63912 0.09200
C 	C 	0.17978 0.59833 0.78098 0.09600
N 	N 	0.98624 0.77872 0.74483 -0.08700
N 	N 	0.35562 0.84850 0.78712 -0.10600
N 	N 	0.18217 0.55537 0.81120 -0.10300
N 	N 	0.19514 0.86949 0.61143 -0.11800
H 	H 	0.19877 0.74795 0.61987 0.05500
H 	H 	0.15679 0.66531 0.79637 0.05600
H 	H 	0.05335 0.72111 0.72432 0.05400
H 	H 	0.28583 0.92038 0.77983 0.04700
C 	C 	0.10062 0.30521 0.17225 -0.03800
C 	C 	0.11975 0.30243 0.22575 0.02800
C 	C 	0.12779 0.25362 0.26383 -0.05500
C 	C 	0.11718 0.20828 0.24900 0.02800
C 	C 	0.08854 0.20565 0.19620 -0.07500
C 	C 	0.08348 0.25597 0.15786 0.01600
C 	C 	0.13430 0.35197 0.24217 0.01400
C 	C 	0.08002 0.35940 0.22697 -0.04300
C 	C 	0.09700 0.41413 0.23259 0.00400
C 	C 	0.16787 0.45967 0.25636 -0.01800
C 	C 	0.21803 0.44543 0.27989 -0.01500
C 	C 	0.20327 0.39429 0.27040 -0.02400
C 	C 	0.04253 0.42481 0.21164 0.07700
C 	C 	0.26074 0.38881 0.28614 0.09300
C 	C 	0.09835 0.35820 0.13202 0.09800
C 	C 	0.13850 0.16644 0.28780 0.08700
N 	N 	0.99889 0.43340 0.19483 -0.08900
N 	N 	0.30679 0.38446 0.29873 -0.10300
N 	N 	0.15624 0.13338 0.31899 -0.08200
N 	N 	0.09651 0.40065 0.09983 -0.10700
H 	H 	0.06336 0.25525 0.11697 0.04400
H 	H 	0.14399 0.25197 0.30495 0.06300
H 	H 	0.02583 0.32484 0.20788 0.05600
H 	H 	0.27160 0.47880 0.30053 0.05400
C 	C 	0.59120 0.74956 0.18380 -0.03900
C 	C 	0.56971 0.77946 0.18926 0.03000
C 	C 	0.61981 0.84397 0.19337 -0.05800
C 	C 	0.69222 0.87760 0.19640 0.03400
C 	C 	0.71494 0.84737 0.19240 -0.08100
C 	C 	0.66351 0.78394 0.18471 0.01900
C 	C 	0.49728 0.74165 0.19706 0.01300
C 	C 	0.48877 0.71779 0.24803 -0.04200
C 	C 	0.42342 0.68918 0.25659 -0.00100
C 	C 	0.36501 0.68291 0.21377 -0.01800
C 	C 	0.37393 0.70798 0.16271 -0.01700
C 	C 	0.43979 0.73752 0.15413 -0.02400
C 	C 	0.41595 0.66463 0.30956 0.08800
C 	C 	0.44784 0.76303 0.10125 0.09400
C 	C 	0.53964 0.68348 0.17794 0.10100
C 	C 	0.74278 0.94222 0.20539 0.06300
N 	N 	0.40988 0.64493 0.35195 -0.10500
N 	N 	0.45437 0.78349 0.05890 -0.10400
N 	N 	0.78289 0.99385 0.21276 -0.13500
N 	N 	0.49828 0.63052 0.17323 -0.10500
H 	H 	0.68007 0.76058 0.18114 0.05100
H 	H 	0.60282 0.86706 0.19684 0.06100
H 	H 	0.53357 0.72241 0.28105 0.05800
H 	H 	0.32886 0.70259 0.12971 0.05200
C 	C 	0.10653 0.73362 0.30766 -0.03800
C 	C 	0.16958 0.74541 0.30998 0.02600
C 	C 	0.23241 0.80958 0.30490 -0.05800
C 	C 	0.22906 0.86182 0.28815 0.02900
C 	C 	0.16186 0.84987 0.27390 -0.08100
C 	C 	0.10246 0.78597 0.28880 0.01400
C 	C 	0.16583 0.69478 0.30466 0.01200
C 	C 	0.12559 0.67400 0.25799 -0.03900
C 	C 	0.13496 0.63953 0.24595 -0.00300
C 	C 	0.18643 0.62709 0.28019 -0.01400
C 	C 	0.22201 0.64275 0.32882 -0.01900
C 	C 	0.21119 0.67571 0.34154 -0.02400
C 	C 	0.09312 0.61885 0.19763 0.08900
C 	C 	0.24751 0.69058 0.39209 0.09300
C 	C 	0.04585 0.66814 0.32377 0.08000
C 	C 	0.29383 0.92773 0.28209 0.08200
N 	N 	0.05954 0.60222 0.15896 -0.10800
N 	N 	0.27661 0.70249 0.43259 -0.10800
N 	N 	0.34571 0.98057 0.27721 -0.10200
N 	N 	0.99724 0.61565 0.33677 -0.09200
H 	H 	0.05162 0.77655 0.28150 0.04700
H 	H 	0.28250 0.81901 0.31000 0.05900
H 	H 	0.08972 0.68759 0.22986 0.04900
H 	H 	0.26012 0.63149 0.35591 0.05500
C 	C 	0.91451 0.20350 0.55174 -0.04400
C 	C 	0.85118 0.19457 0.54449 0.03000
C 	C 	0.78413 0.13806 0.53051 -0.05800
C 	C 	0.77993 0.08653 0.53196 0.02900
C 	C 	0.84331 0.09115 0.54835 -0.08400
C 	C 	0.91034 0.15175 0.55351 0.02300
C 	C 	0.85439 0.23739 0.56097 0.01100
C 	C 	0.85789 0.29259 0.52470 -0.04100
C 	C 	0.85319 0.32950 0.53818 -0.00200
C 	C 	0.84644 0.31179 0.58902 -0.01500
C 	C 	0.84693 0.25862 0.62602 -0.02100
C 	C 	0.84938 0.22069 0.61202 -0.02600
C 	C 	0.85217 0.38352 0.49898 0.09700
C 	C 	0.84188 0.16219 0.64915 0.09200
C 	C 	0.98371 0.26521 0.55790 0.11200
C 	C 	0.71027 0.02776 0.51923 0.10000
N 	N 	0.85137 0.42683 0.46757 -0.10000
N 	N 	0.83535 0.11504 0.67864 -0.11500
N 	N 	0.65441 0.98069 0.50905 -0.11400
N 	N 	0.03906 0.31488 0.56253 -0.12400
H 	H 	0.95939 0.15686 0.56341 0.04500
H 	H 	0.73518 0.13245 0.52202 0.06100
H 	H 	0.86210 0.30567 0.48551 0.05900
H 	H 	0.84269 0.24531 0.66525 0.05300
C 	C 	0.00733 0.75430 0.55331 -0.04700
C 	C 	0.95867 0.69273 0.58141 0.04200
C 	C 	0.92298 0.68773 0.60828 -0.05800
C 	C 	0.93914 0.74399 0.61023 0.02100
C 	C 	0.99391 0.80610 0.58691 -0.04300
C 	C 	0.02269 0.81029 0.55475 -0.00300
C 	C 	0.94423 0.63299 0.58269 0.00200
C 	C 	0.97658 0.60502 0.62712 -0.01600
C 	C 	0.95501 0.54337 0.63258 -0.01500
C 	C 	0.90081 0.50947 0.59318 -0.00500
C 	C 	0.87455 0.54072 0.54637 -0.02000
C 	C 	0.89499 0.60175 0.54123 -0.01500
C 	C 	0.98574 0.51358 0.67995 0.11400
C 	C 	0.86302 0.63075 0.49422 0.09600
C 	C 	0.04408 0.76073 0.52477 0.09900
C 	C 	0.89525 0.73721 0.63211 0.09600
N 	N 	0.01012 0.48949 0.71790 -0.11700
N 	N 	0.83745 0.65404 0.45658 -0.10100
N 	N 	0.85959 0.73152 0.64938 -0.09700
N 	N 	0.07355 0.76584 0.50197 -0.10700
H 	H 	0.06169 0.85781 0.53418 0.04800
H 	H 	0.88255 0.64004 0.62755 0.06100
H 	H 	0.01635 0.63005 0.65828 0.03700
H 	H 	0.83404 0.51531 0.51550 0.05800
C 	C 	0.45950 0.24937 0.63453 -0.03900
C 	C 	0.49594 0.22249 0.67502 0.02700
C 	C 	0.46403 0.17139 0.71652 -0.05800
C 	C 	0.39283 0.14169 0.71447 0.02600
C 	C 	0.35248 0.16181 0.66963 -0.07700
C 	C 	0.38782 0.21872 0.63191 0.01700
C 	C 	0.56340 0.24254 0.67113 0.01300
C 	C 	0.62940 0.28330 0.70172 -0.04300
C 	C 	0.69415 0.30899 0.69400 -0.00100
C 	C 	0.69300 0.29540 0.65410 -0.01600
C 	C 	0.62680 0.25022 0.62665 -0.01700
C 	C 	0.56211 0.22334 0.63527 -0.02300
C 	C 	0.76144 0.34843 0.72762 0.09100
C 	C 	0.49457 0.17694 0.60658 0.09400
C 	C 	0.49437 0.30675 0.59448 0.10000
C 	C 	0.36084 0.08924 0.75763 0.08500
N 	N 	0.81535 0.38003 0.75452 -0.10200
N 	N 	0.44042 0.13977 0.58361 -0.10700
N 	N 	0.33535 0.04729 0.79231 -0.09800
N 	N 	0.52236 0.35272 0.56241 -0.10600
H 	H 	0.35799 0.23635 0.59859 0.04800
H 	H 	0.49342 0.15288 0.74919 0.05900
H 	H 	0.63038 0.29593 0.73084 0.05700
H 	H 	0.62556 0.23816 0.59697 0.05500
C 	C 	0.88668 0.19850 0.02133 -0.04300
C 	C 	0.82139 0.18499 0.01622 0.03000
C 	C 	0.75861 0.12089 0.01828 -0.05800
C 	C 	0.76228 0.06947 0.03220 0.02800
C 	C 	0.82958 0.08201 0.04521 -0.07800
C 	C 	0.89037 0.14689 0.03554 0.01700
C 	C 	0.81945 0.23591 0.01447 0.00800
C 	C 	0.78711 0.26171 0.96760 -0.03400
C 	C 	0.77091 0.29900 0.96734 0.00300
C 	C 	0.78614 0.30989 0.01465 -0.01800
C 	C 	0.82425 0.28897 0.06065 -0.01600
C 	C 	0.84097 0.25211 0.06081 -0.02000
C 	C 	0.73889 0.32607 0.91840 0.09200
C 	C 	0.87826 0.22942 0.10901 0.09400
C 	C 	0.95038 0.26483 0.01361 0.11000
C 	C 	0.69751 0.00339 0.03674 0.09900
N 	N 	0.71322 0.34775 0.87918 -0.10400
N 	N 	0.90816 0.21123 0.14757 -0.11000
N 	N 	0.64569 0.95043 0.04049 -0.11000
N 	N 	0.00142 0.31801 0.00737 -0.11800
H 	H 	0.94183 0.15703 0.04354 0.04700
H 	H 	0.70758 0.11066 0.01184 0.06100
H 	H 	0.77245 0.25097 0.93163 0.05600
H 	H 	0.83776 0.29862 0.09686 0.05700
C 	C 	0.87820 0.56371 0.07625 -0.02100
C 	C 	0.84684 0.54797 0.11335 0.01400
C 	C 	0.79982 0.48242 0.13706 -0.03900
C 	C 	0.78001 0.43278 0.12147 0.00100
C 	C 	0.80405 0.44854 0.07960 -0.01400
C 	C 	0.85628 0.51392 0.05932 -0.01500
C 	C 	0.86073 0.59983 0.12600 0.02900
C 	C 	0.83291 0.63511 0.08825 -0.05700
C 	C 	0.85365 0.68998 0.09671 0.03200
C 	C 	0.90317 0.71016 0.14316 -0.08100
C 	C 	0.92288 0.66957 0.18355 0.01900
C 	C 	0.90306 0.61528 0.17493 -0.04100
C 	C 	0.82560 0.72635 0.05691 0.08100
C 	C 	0.92815 0.57693 0.21586 0.09900
C 	C 	0.93217 0.63072 0.05503 0.09700
C 	C 	0.73332 0.36557 0.14760 0.09500
N 	N 	0.80295 0.75539 0.02505 -0.07700
N 	N 	0.94806 0.54602 0.24860 -0.10300
N 	N 	0.69588 0.31171 0.16847 -0.09900
N 	N 	0.97543 0.68444 0.03808 -0.10400
H 	H 	0.87673 0.52626 0.02829 0.05500
H 	H 	0.77763 0.47008 0.16697 0.05900
H 	H 	0.79716 0.62118 0.05162 0.06200
H 	H 	0.95828 0.68322 0.22028 0.04800
C 	C 	0.47093 0.28288 0.98042 -0.01500
C 	C 	0.43477 0.21827 0.01071 0.00800
C 	C 	0.46212 0.18293 0.02811 -0.03500
C 	C 	0.52995 0.21411 0.02197 -0.01000
C 	C 	0.57028 0.28122 0.99708 -0.00200
C 	C 	0.53781 0.31358 0.97288 -0.02200
C 	C 	0.37332 0.18968 0.02964 0.02200
C 	C 	0.30449 0.16442 0.99627 -0.04300
C 	C 	0.24391 0.12515 0.01647 0.01900
C 	C 	0.25194 0.10801 0.07094 -0.07400
C 	C 	0.32126 0.14040 0.10296 0.01200
C 	C 	0.38198 0.18143 0.08248 -0.03600
C 	C 	0.17372 0.10239 0.98125 0.09300
C 	C 	0.45296 0.21330 0.11620 0.09900
C 	C 	0.44149 0.31897 0.95912 0.09200
C 	C 	0.55937 0.17785 0.04400 0.09700
N 	N 	0.11751 0.08425 0.95301 -0.09800
N 	N 	0.50987 0.23886 0.14316 -0.10300
N 	N 	0.58293 0.14879 0.06166 -0.10500
N 	N 	0.41787 0.34786 0.94207 -0.10200
H 	H 	0.56729 0.36438 0.95174 0.05700
H 	H 	0.43259 0.13220 0.04936 0.05700
H 	H 	0.29796 0.17363 0.95500 0.06300
H 	H 	0.32800 0.13014 0.14446 0.05600
