data_crystal

_cell_length_a 26.09568
_cell_length_b 26.53729
_cell_length_c 34.56015
_cell_angle_alpha 95.49665
_cell_angle_beta  95.49224
_cell_angle_gamma 125.83306

_symmetry_space_group_name_	'P 1'
_symmetry_space_group_name_H-M	'P 1'

loop_
_symmetry_equiv_pos_as_xyz
  x,y,z

loop_
_atom_site_label
_atom_site_type_symbol
_atom_site_fract_x
_atom_site_fract_y
_atom_site_fract_z
_atom_site_charge
C 	C 	0.93801 0.00460 0.98337 0.07000
C 	C 	0.00095 0.03408 0.97657 -0.07600
C 	C 	0.02830 0.00161 0.97728 0.06400
C 	C 	0.99271 0.93999 0.98521 -0.06400
C 	C 	0.92906 0.90978 0.99045 0.07700
C 	C 	0.90199 0.94228 0.98992 -0.06700
H 	H 	0.02851 0.08198 0.97089 0.07400
H 	H 	0.01398 0.91509 0.98634 0.08100
H 	H 	0.85279 0.91895 0.99420 0.08400
C 	C 	0.96236 0.02374 0.46625 0.06800
C 	C 	0.92794 0.95828 0.46467 -0.06500
C 	C 	0.96108 0.93189 0.46976 0.07400
C 	C 	0.02846 0.97090 0.47597 -0.06700
C 	C 	0.06286 0.03616 0.47748 0.06900
C 	C 	0.02984 0.06259 0.47282 -0.07300
H 	H 	0.87578 0.92812 0.45951 0.08000
H 	H 	0.05405 0.95044 0.47937 0.08100
H 	H 	0.05649 0.11313 0.47396 0.08300
Cu	Cu	0.61969 0.23103 0.99813 0.92500
Cu	Cu	0.67025 0.23209 0.91480 0.89000
Cu	Cu	0.64407 0.33261 0.95132 0.91700
Cu	Cu	0.59471 0.33072 0.02627 0.90400
C 	C 	0.61941 0.26335 0.08032 0.28000
O 	O 	0.52233 0.17950 0.99202 -0.35600
C 	C 	0.67987 0.32797 0.87764 0.27800
O 	O 	0.65702 0.32699 0.00586 -0.63200
O 	O 	0.61448 0.24302 0.94234 -0.62700
O 	O 	0.67848 0.20523 0.99975 -0.35400
O 	O 	0.64985 0.16003 0.93464 -0.40600
O 	O 	0.58325 0.28081 0.06861 -0.36800
O 	O 	0.67841 0.42065 0.96197 -0.35300
C 	C 	0.67301 0.44817 0.99357 0.29500
C 	C 	0.49115 0.20053 0.97723 0.29900
O 	O 	0.52268 0.26095 0.97585 -0.37400
O 	O 	0.62613 0.41500 0.01326 -0.36500
O 	O 	0.63455 0.23624 0.05449 -0.34000
C 	C 	0.67570 0.16695 0.97096 0.31400
O 	O 	0.64310 0.33683 0.89576 -0.35700
O 	O 	0.71285 0.31192 0.89667 -0.40300
H 	H 	0.70176 0.35866 0.02043 0.18400
H 	H 	0.57007 0.21420 0.92688 0.17300
Cu	Cu	0.75739 0.35785 0.45200 0.93100
Cu	Cu	0.77285 0.32013 0.53763 0.87700
Cu	Cu	0.66965 0.33152 0.51211 0.90100
Cu	Cu	0.63218 0.34969 0.43329 0.90900
C 	C 	0.69039 0.32353 0.37188 0.27900
O 	O 	0.79063 0.44804 0.44829 -0.34800
C 	C 	0.72598 0.35764 0.59668 0.27800
O 	O 	0.65935 0.30569 0.45645 -0.63900
O 	O 	0.76251 0.37456 0.50982 -0.63700
O 	O 	0.80571 0.32109 0.45213 -0.36100
O 	O 	0.74902 0.25647 0.49416 -0.41400
O 	O 	0.66587 0.35285 0.38340 -0.35500
O 	O 	0.57809 0.28344 0.51155 -0.36300
C 	C 	0.53620 0.28070 0.48496 0.31500
C 	C 	0.76386 0.47284 0.46325 0.30500
O 	O 	0.70793 0.43620 0.47381 -0.37300
O 	O 	0.55469 0.31681 0.45783 -0.37000
O 	O 	0.73624 0.32820 0.39581 -0.34300
C 	C 	0.78494 0.27004 0.46711 0.31300
O 	O 	0.68193 0.35194 0.57008 -0.36700
O 	O 	0.77631 0.36318 0.58653 -0.40300
H 	H 	0.63121 0.25931 0.44691 0.18600
H 	H 	0.79084 0.41967 0.52292 0.18200
C 	C 	0.82392 0.40752 0.73742 -0.03600
C 	C 	0.81728 0.40266 0.77688 -0.03600
C 	C 	0.75724 0.37687 0.78781 0.02400
C 	C 	0.70384 0.35728 0.75902 -0.00500
C 	C 	0.71045 0.36184 0.71923 -0.00500
C 	C 	0.77055 0.38642 0.70835 0.02400
C 	C 	0.65657 0.34031 0.69021 0.02500
C 	C 	0.59692 0.31610 0.70134 -0.03600
C 	C 	0.59043 0.31188 0.74089 -0.03600
C 	C 	0.64346 0.33164 0.76980 0.02500
C 	C 	0.63647 0.32454 0.80914 -0.02600
C 	C 	0.68908 0.34188 0.83754 -0.05300
C 	C 	0.74962 0.36908 0.82696 -0.02500
C 	C 	0.77619 0.38800 0.66842 -0.02600
C 	C 	0.72190 0.36397 0.63913 -0.04800
C 	C 	0.66252 0.34155 0.65029 -0.02600
H 	H 	0.87043 0.42692 0.72941 0.05200
H 	H 	0.85874 0.41836 0.79885 0.05400
H 	H 	0.55534 0.29989 0.67931 0.05400
H 	H 	0.54394 0.29251 0.74891 0.05500
H 	H 	0.58983 0.30372 0.81738 0.05700
H 	H 	0.79044 0.38343 0.84907 0.05800
H 	H 	0.82238 0.40668 0.66007 0.05500
H 	H 	0.62064 0.32330 0.62784 0.06100
C 	C 	0.77248 0.33081 0.24840 -0.03300
C 	C 	0.76241 0.32263 0.20701 -0.03500
C 	C 	0.70013 0.29129 0.18492 0.02700
C 	C 	0.64730 0.26601 0.20451 -0.00400
C 	C 	0.65742 0.27416 0.24614 -0.00200
C 	C 	0.72038 0.30772 0.26820 0.02700
C 	C 	0.60485 0.25106 0.26576 0.02700
C 	C 	0.54233 0.21782 0.24361 -0.03400
C 	C 	0.53229 0.20974 0.20229 -0.03400
C 	C 	0.58464 0.23478 0.18260 0.02700
C 	C 	0.57541 0.23107 0.14149 -0.02200
C 	C 	0.62829 0.25883 0.12217 -0.04300
C 	C 	0.69026 0.28706 0.14366 -0.02600
C 	C 	0.73070 0.32012 0.30976 -0.02000
C 	C 	0.67867 0.30005 0.32925 -0.04100
C 	C 	0.61573 0.26379 0.30724 -0.02300
H 	H 	0.82095 0.35607 0.26504 0.05700
H 	H 	0.80324 0.34165 0.19224 0.05600
H 	H 	0.50155 0.19923 0.25840 0.05600
H 	H 	0.48387 0.18498 0.18567 0.05800
H 	H 	0.52744 0.20817 0.12464 0.06100
H 	H 	0.73089 0.30787 0.12856 0.05500
H 	H 	0.77927 0.34783 0.32681 0.06300
H 	H 	0.57560 0.24758 0.32242 0.04900
C 	C 	0.79210 0.53981 0.46310 -0.09800
C 	C 	0.75579 0.55686 0.44365 0.15500
C 	C 	0.78218 0.62074 0.44559 -0.08400
C 	C 	0.84543 0.66807 0.46541 0.03100
C 	C 	0.88240 0.65114 0.48392 0.08200
C 	C 	0.85552 0.58718 0.48279 -0.00700
H 	H 	0.75397 0.63363 0.43086 0.09200
C 	C 	0.87302 0.73519 0.46584 0.01100
H 	H 	0.88387 0.57436 0.49743 0.06200
C 	C 	0.87450 0.77115 0.49906 -0.06100
C 	C 	0.90119 0.83502 0.50013 0.11100
C 	C 	0.92545 0.86305 0.46735 -0.02000
C 	C 	0.92214 0.82651 0.43368 -0.05200
C 	C 	0.89659 0.76302 0.43290 0.10300
H 	H 	0.85587 0.74971 0.52432 0.08600
H 	H 	0.94114 0.84802 0.40850 0.08100
Br	Br	0.96989 0.71465 0.51027 -0.19200
Br	Br	0.67198 0.49390 0.41183 -0.24300
Br	Br	0.90631 0.88380 0.54714 -0.19100
Br	Br	0.89630 0.71564 0.38715 -0.18900
C 	C 	0.92795 0.05198 0.46157 -0.01900
C 	C 	0.91886 0.06833 0.42528 0.11000
C 	C 	0.89318 0.10201 0.42265 -0.06100
C 	C 	0.87655 0.11968 0.45599 0.00900
C 	C 	0.88334 0.10120 0.49187 0.10500
C 	C 	0.90898 0.06751 0.49448 -0.05300
H 	H 	0.88716 0.11538 0.39486 0.08500
C 	C 	0.85381 0.15905 0.45351 0.03000
H 	H 	0.91554 0.05466 0.52238 0.08400
C 	C 	0.78770 0.12986 0.44350 -0.08500
C 	C 	0.76483 0.16622 0.44530 0.15100
C 	C 	0.80840 0.23248 0.45744 -0.10300
C 	C 	0.87477 0.26192 0.46490 -0.01100
C 	C 	0.89762 0.22555 0.46306 0.08200
H 	H 	0.75396 0.07879 0.43512 0.08900
H 	H 	0.90856 0.31293 0.47371 0.06200
Br	Br	0.85920 0.12281 0.53780 -0.20400
Br	Br	0.94160 0.04538 0.37913 -0.20600
Br	Br	0.67417 0.12476 0.43013 -0.21600
Br	Br	0.98868 0.26734 0.47498 -0.19300
C 	C 	0.13344 0.07629 0.48185 -0.01900
C 	C 	0.17278 0.09478 0.51904 0.11000
C 	C 	0.23940 0.12876 0.52208 -0.06200
C 	C 	0.26723 0.14498 0.48833 0.01000
C 	C 	0.22797 0.12740 0.45126 0.10400
C 	C 	0.16139 0.09328 0.44821 -0.05400
H 	H 	0.26958 0.14268 0.55069 0.08300
C 	C 	0.33743 0.18023 0.49193 0.02900
H 	H 	0.13121 0.07918 0.41957 0.08200
C 	C 	0.36336 0.14699 0.48617 -0.08300
C 	C 	0.42888 0.17954 0.48515 0.14800
C 	C 	0.46907 0.24605 0.49031 -0.09500
C 	C 	0.44358 0.27935 0.49778 -0.00600
C 	C 	0.37809 0.24681 0.49868 0.08400
H 	H 	0.33221 0.09573 0.48129 0.08800
H 	H 	0.47451 0.33059 0.50221 0.07200
Br	Br	0.26449 0.14939 0.40447 -0.19200
Br	Br	0.13640 0.07461 0.56599 -0.19700
Br	Br	0.46178 0.13216 0.47453 -0.22600
Br	Br	0.34464 0.29393 0.50810 -0.18700
C 	C 	0.71023 0.51737 0.00125 -0.08700
C 	C 	0.77789 0.55608 0.00674 0.14800
C 	C 	0.81224 0.62128 0.00868 -0.08000
C 	C 	0.77976 0.64848 0.00576 0.02900
C 	C 	0.71248 0.61036 0.00265 0.08300
C 	C 	0.67801 0.54502 0.00039 0.00100
H 	H 	0.86417 0.65075 0.01178 0.09200
C 	C 	0.81574 0.71551 0.00226 0.02300
H 	H 	0.62602 0.51554 0.99680 0.06600
C 	C 	0.81832 0.73132 0.96458 -0.07400
C 	C 	0.85476 0.79467 0.96048 0.11700
C 	C 	0.88958 0.84290 0.99433 -0.03100
C 	C 	0.88653 0.82718 0.03205 -0.03800
C 	C 	0.84970 0.76372 0.03617 0.09800
H 	H 	0.79213 0.69424 0.93845 0.08700
H 	H 	0.91286 0.86427 0.05816 0.08200
Br	Br	0.66691 0.64667 0.00093 -0.17700
Br	Br	0.82429 0.52091 0.01255 -0.22500
Br	Br	0.85622 0.81451 0.90841 -0.18700
Br	Br	0.84586 0.74371 0.08823 -0.18300
C 	C 	0.71736 0.14714 0.97736 -0.10600
C 	C 	0.78420 0.19049 0.97912 0.15000
C 	C 	0.82265 0.16980 0.98160 -0.08800
C 	C 	0.79502 0.10602 0.98200 0.03400
C 	C 	0.72847 0.06296 0.98128 0.07400
C 	C 	0.68993 0.08365 0.97877 -0.00200
H 	H 	0.87391 0.20307 0.98241 0.08800
C 	C 	0.83575 0.08438 0.98203 -0.00000
H 	H 	0.63854 0.05020 0.97742 0.06300
C 	C 	0.86792 0.08743 0.01808 -0.05400
C 	C 	0.90460 0.06467 0.01871 0.11600
C 	C 	0.90905 0.03836 0.98297 -0.02800
C 	C 	0.87914 0.03782 0.94684 -0.05300
C 	C 	0.84269 0.06082 0.94620 0.10600
H 	H 	0.86374 0.10675 0.04565 0.08400
H 	H 	0.88276 0.01790 0.91929 0.08200
Br	Br	0.68937 0.97566 0.98312 -0.17800
Br	Br	0.82344 0.27766 0.97653 -0.26200
Br	Br	0.94791 0.06940 0.06860 -0.20400
Br	Br	0.80170 0.05861 0.89620 -0.20000
C 	C 	0.09497 0.03272 0.97094 -0.01400
C 	C 	0.10795 0.00770 0.93873 0.09900
C 	C 	0.17142 0.03113 0.93683 -0.06100
C 	C 	0.22242 0.08099 0.96601 0.00700
C 	C 	0.20981 0.10967 0.99626 0.10400
C 	C 	0.14622 0.08471 0.99901 -0.06500
H 	H 	0.18111 0.01049 0.91269 0.07900
C 	C 	0.28881 0.10291 0.96474 0.02800
H 	H 	0.13659 0.10510 0.02333 0.08800
C 	C 	0.32131 0.13956 0.93686 -0.08600
C 	C 	0.38637 0.16634 0.93800 0.14700
C 	C 	0.42016 0.15893 0.96848 -0.09500
C 	C 	0.38613 0.11768 0.99415 -0.02000
C 	C 	0.32047 0.08891 0.99198 0.08200
H 	H 	0.29617 0.14769 0.91450 0.08700
H 	H 	0.41119 0.10991 0.01681 0.07900
Br	Br	0.27880 0.18332 0.03375 -0.19100
Br	Br	0.03996 0.94346 0.89627 -0.18300
Br	Br	0.42699 0.20929 0.89631 -0.23500
Br	Br	0.27495 0.03111 0.02661 -0.19000
