data_crystal

_cell_length_a 20.25394
_cell_length_b 21.71610
_cell_length_c 39.68298
_cell_angle_alpha 60.71041
_cell_angle_beta  119.05106
_cell_angle_gamma 133.17319

_symmetry_space_group_name_	'P 1'
_symmetry_space_group_name_H-M	'P 1'

loop_
_symmetry_equiv_pos_as_xyz
  x,y,z

loop_
_atom_site_label
_atom_site_type_symbol
_atom_site_fract_x
_atom_site_fract_y
_atom_site_fract_z
_atom_site_charge
Co	Co	0.02682 0.09388 0.08020 1.20000
O 	O 	0.01521 0.05829 0.18860 -0.37500
C 	C 	0.00602 0.98493 0.21096 0.30900
O 	O 	0.00955 0.94158 0.19750 -0.34500
O 	O 	0.04940 0.92035 0.06472 -0.72500
C 	C 	0.01418 0.96854 0.32429 0.08800
C 	C 	0.01116 0.96166 0.25382 -0.00300
O 	O 	0.01959 0.19258 0.11398 -0.37900
O 	O 	0.01382 0.05956 0.68867 -0.37600
N 	N 	0.00239 0.62803 0.65196 0.01100
H 	H 	0.04304 0.61586 0.17588 0.07900
O 	O 	0.03089 0.47144 0.19886 -0.05600
O 	O 	0.02523 0.30173 0.00291 -0.07300
O 	O 	0.03698 0.02488 0.98754 -0.35600
O 	O 	0.00943 0.00761 0.48253 -0.34800
C 	C 	0.01381 0.98775 0.85890 0.09400
C 	C 	0.02508 0.00267 0.92910 -0.06700
C 	C 	0.01586 0.97488 0.36096 0.04500
C 	C 	0.01510 0.97866 0.43138 0.00700
O 	O 	0.03390 0.91414 0.56557 -0.71700
C 	C 	0.07263 0.07000 0.86700 -0.09400
Co	Co	0.05164 0.01285 0.54261 1.18000
O 	O 	0.07044 0.40029 0.02875 -0.07800
O 	O 	0.06981 0.77368 0.09395 -0.38400
O 	O 	0.04731 0.11039 0.53486 -0.43800
C 	C 	0.06029 0.00190 0.97196 0.27000
N 	N 	0.00764 0.32424 0.02078 -0.00800
C 	C 	0.01458 0.97823 0.82386 0.07100
C 	C 	0.01016 0.98945 0.71253 0.30600
O 	O 	0.00711 0.94108 0.69932 -0.33900
C 	C 	0.01471 0.96814 0.75510 -0.00100
H 	H 	0.07407 0.57689 0.63718 0.09300
C 	C 	0.99899 0.95264 0.47062 0.24500
O 	O 	0.99660 0.75089 0.57027 -0.41500
Co	Co	0.99045 0.07692 0.57677 1.17100
C 	C 	0.07888 0.07718 0.90205 0.03600
O 	O 	0.99087 0.17898 0.61266 -0.43700
O 	O 	0.98662 0.87940 0.49516 -0.39100
O 	O 	0.13658 0.23692 0.71767 -0.09800
Co	Co	0.08873 0.02641 0.04810 1.17700
Co	Co	0.08949 0.87867 0.04508 1.18400
Co	Co	0.08594 0.88191 0.54689 1.18800
C 	C 	0.09911 0.02496 0.81416 -0.06800
C 	C 	0.09898 0.02082 0.77977 -0.01000
H 	H 	0.16481 0.06595 0.83268 0.06400
H 	H 	0.12989 0.13983 0.90935 0.04600
O 	O 	0.94066 0.55113 0.64488 -0.11000
O 	O 	0.11699 0.97944 0.99419 -0.34800
C 	C 	0.26387 0.04392 0.06392 0.27100
O 	O 	0.09981 0.13051 0.04438 -0.44300
C 	C 	0.10665 0.22458 0.12152 0.31600
C 	C 	0.10459 0.78274 0.13008 0.31200
O 	O 	0.09609 0.82813 0.13901 -0.35400
O 	O 	0.12878 0.18884 0.11333 -0.36700
O 	O 	0.22372 0.95975 0.07394 -0.33300
O 	O 	0.22894 0.07421 0.06749 -0.38200
C 	C 	0.23314 0.07073 0.54415 0.32800
C 	C 	0.07647 0.21764 0.61338 0.35200
C 	C 	0.14452 0.82887 0.63307 0.30500
O 	O 	0.17802 0.88517 0.60148 -0.35500
O 	O 	0.09558 0.83280 0.64436 -0.33200
O 	O 	0.09640 0.18245 0.60340 -0.37300
O 	O 	0.18270 0.01209 0.52415 -0.41700
O 	O 	0.19338 0.07741 0.55908 -0.39500
H 	H 	0.16403 0.06207 0.77125 0.06200
H 	H 	0.11545 0.12806 0.84683 0.07100
C 	C 	0.09765 0.01773 0.31313 -0.07600
C 	C 	0.09618 0.01243 0.27879 -0.00400
H 	H 	0.16086 0.05244 0.27024 0.06400
H 	H 	0.16352 0.06183 0.33040 0.06500
C 	C 	0.08414 0.97612 0.39620 -0.03400
C 	C 	0.08471 0.97957 0.43076 -0.00000
H 	H 	0.13536 0.97180 0.39729 0.06600
H 	H 	0.13604 0.97727 0.45783 0.05200
C 	C 	0.17809 0.39385 0.65391 -0.05300
C 	C 	0.14423 0.30825 0.61717 -0.08800
C 	C 	0.16694 0.32253 0.65360 0.11500
N 	N 	0.17352 0.26166 0.69033 -0.02400
H 	H 	0.19481 0.40361 0.68208 0.08100
O 	O 	0.21778 0.23200 0.69670 -0.08900
C 	C 	0.12558 0.63620 0.64739 -0.04600
C 	C 	0.25786 0.79177 0.67224 -0.01000
C 	C 	0.16451 0.76247 0.65632 -0.06200
C 	C 	0.09697 0.67702 0.65036 0.11000
H 	H 	0.30986 0.85332 0.68061 0.09000
C 	C 	0.17807 0.30537 0.13583 -0.07400
C 	C 	0.18507 0.30044 0.17412 0.10800
C 	C 	0.19827 0.36682 0.18069 -0.04800
H 	H 	0.20268 0.36179 0.21017 0.08500
N 	N 	0.18041 0.22871 0.20665 -0.02200
O 	O 	0.22193 0.19879 0.21019 -0.09300
O 	O 	0.14150 0.19816 0.23447 -0.10000
C 	C 	0.11352 0.65709 0.17260 -0.01000
C 	C 	0.16033 0.74829 0.15890 -0.07300
C 	C 	0.25500 0.80060 0.15902 0.11300
C 	C 	0.15650 0.61881 0.18069 0.08700
N 	N 	0.12038 0.53091 0.20426 -0.01800
O 	O 	0.17609 0.51335 0.23474 -0.07600
O 	O 	0.27258 0.98278 0.00575 -0.09600
C 	C 	0.75343 0.30918 0.02365 0.14100
N 	N 	0.66768 0.25229 0.03132 -0.12900
C 	C 	0.63986 0.27540 0.04527 0.14800
N 	N 	0.70035 0.35324 0.05425 -0.12000
C 	C 	0.78219 0.41381 0.04335 0.14700
N 	N 	0.80998 0.39208 0.02817 -0.13200
C 	C 	0.70995 0.29782 0.51478 0.14000
N 	N 	0.76710 0.37924 0.52119 -0.11500
C 	C 	0.72855 0.41508 0.51817 0.14800
N 	N 	0.63508 0.37023 0.50867 -0.12700
C 	C 	0.57959 0.28627 0.50764 0.15200
N 	N 	0.61653 0.25106 0.50933 -0.13700
C 	C 	0.28402 0.63332 0.17193 0.15000
N 	N 	0.22950 0.55450 0.16316 -0.11400
C 	C 	0.27141 0.52407 0.16380 0.15000
N 	N 	0.36515 0.57231 0.17233 -0.12600
C 	C 	0.41818 0.65310 0.17706 0.15600
N 	N 	0.37813 0.68235 0.17827 -0.13300
C 	C 	0.25416 0.64429 0.64534 0.14700
N 	N 	0.19738 0.56369 0.63794 -0.12600
C 	C 	0.22756 0.54596 0.62167 0.15000
N 	N 	0.31131 0.60805 0.61259 -0.12900
C 	C 	0.37130 0.68232 0.62454 0.15700
N 	N 	0.34185 0.70188 0.63959 -0.11800
Co	Co	0.99394 0.85117 0.10182 1.17400
Co	Co	0.94641 0.92325 0.13898 1.18500
C 	C 	0.89443 0.73518 0.04479 0.30500
Co	Co	0.92250 0.06241 0.13483 1.15700
O 	O 	0.96485 0.02226 0.11537 -0.78200
O 	O 	0.94289 0.82183 0.14502 -0.45700
O 	O 	0.99031 0.96563 0.08445 -0.57700
C 	C 	0.76849 0.87251 0.14131 0.33000
O 	O 	0.82176 0.93589 0.15865 -0.40000
O 	O 	0.80456 0.85670 0.12911 -0.37600
C 	C 	0.87593 0.12512 0.04785 0.29500
O 	O 	0.83780 0.06499 0.07827 -0.37800
O 	O 	0.93563 0.13002 0.03914 -0.36800
O 	O 	0.94987 0.80228 0.02077 -0.39400
O 	O 	0.88917 0.74598 0.07385 -0.36500
Co	Co	0.98656 0.84692 0.60555 1.17700
Co	Co	0.93421 0.91501 0.64193 1.18700
C 	C 	0.90917 0.71352 0.56619 0.31900
Co	Co	0.90695 0.05001 0.63944 1.16100
O 	O 	0.94439 0.01025 0.61698 -0.77500
O 	O 	0.93528 0.81607 0.64888 -0.44000
O 	O 	0.96349 0.95073 0.58428 -0.57200
C 	C 	0.76158 0.86052 0.65074 0.33200
O 	O 	0.81832 0.92363 0.66847 -0.40500
O 	O 	0.79386 0.84277 0.63750 -0.36500
C 	C 	0.83446 0.09605 0.55332 0.31200
O 	O 	0.80758 0.03963 0.58647 -0.39100
O 	O 	0.88871 0.10169 0.54046 -0.37100
O 	O 	0.88615 0.73959 0.58022 -0.35600
C 	C 	0.93074 0.92220 0.80022 -0.07100
C 	C 	0.93124 0.91563 0.76679 -0.02600
H 	H 	0.86480 0.88567 0.80692 0.06400
H 	H 	0.86568 0.87411 0.74841 0.05900
C 	C 	0.95523 0.91431 0.88457 -0.09500
C 	C 	0.95906 0.92236 0.91868 0.02400
H 	H 	0.90918 0.85039 0.87905 0.07400
H 	H 	0.91617 0.86450 0.93882 0.06000
C 	C 	0.92978 0.91157 0.30121 -0.08000
C 	C 	0.92828 0.90866 0.26611 -0.02000
H 	H 	0.86512 0.87062 0.30998 0.06600
H 	H 	0.86203 0.86869 0.24741 0.04900
C 	C 	0.94831 0.98020 0.39590 -0.02700
C 	C 	0.94926 0.97934 0.36075 -0.06300
H 	H 	0.89357 0.97862 0.39578 0.06100
H 	H 	0.89741 0.98071 0.33370 0.06100
C 	C 	0.17732 0.45708 0.61867 -0.00400
C 	C 	0.16261 0.44655 0.58249 0.08400
C 	C 	0.14937 0.37396 0.58234 -0.00400
H 	H 	0.13351 0.36446 0.55424 0.07100
N 	N 	0.16663 0.51230 0.54612 -0.01600
O 	O 	0.20529 0.53273 0.52057 -0.07200
O 	O 	0.13181 0.55180 0.53853 -0.05300
C 	C 	0.50706 0.68085 0.64646 -0.05200
C 	C 	0.47087 0.72898 0.63019 -0.01100
C 	C 	0.53042 0.82053 0.61996 0.08500
C 	C 	0.62570 0.86281 0.62710 -0.00300
C 	C 	0.66153 0.81459 0.64284 -0.09200
C 	C 	0.60192 0.72317 0.65278 0.12300
N 	N 	0.63811 0.67311 0.67091 -0.02300
H 	H 	0.46157 0.61026 0.65510 0.08200
H 	H 	0.67191 0.93327 0.62029 0.06800
N 	N 	0.49421 0.87074 0.60166 -0.01600
O 	O 	0.69591 0.67890 0.70572 -0.08700
O 	O 	0.60720 0.61637 0.65419 -0.07400
O 	O 	0.53235 0.93450 0.61562 -0.07100
O 	O 	0.42851 0.85757 0.56910 -0.06800
C 	C 	0.22054 0.67184 0.65806 -0.00800
C 	C 	0.28539 0.74445 0.67515 0.08700
N 	N 	0.37825 0.76909 0.69607 -0.01700
O 	O 	0.98186 0.65322 0.66691 -0.10900
O 	O 	0.44903 0.85045 0.68934 -0.06700
O 	O 	0.39167 0.71090 0.72352 -0.07900
C 	C 	0.20502 0.38507 0.10737 -0.00800
C 	C 	0.21726 0.44397 0.15104 -0.00700
C 	C 	0.21986 0.45251 0.11388 0.08400
N 	N 	0.24164 0.53132 0.08323 -0.01700
H 	H 	0.20735 0.39242 0.07885 0.08200
O 	O 	0.30410 0.56960 0.06478 -0.07500
O 	O 	0.19691 0.56330 0.07290 -0.07100
C 	C 	0.52976 0.78296 0.13620 -0.05200
C 	C 	0.51221 0.71455 0.17064 -0.01300
C 	C 	0.57555 0.69239 0.19252 0.07500
C 	C 	0.65399 0.73712 0.17910 -0.00600
C 	C 	0.67259 0.80682 0.14522 -0.09000
C 	C 	0.60828 0.82766 0.12287 0.11800
N 	N 	0.62352 0.89541 0.08681 -0.02500
H 	H 	0.47954 0.79818 0.11850 0.08600
H 	H 	0.70432 0.72203 0.19677 0.06100
N 	N 	0.56059 0.62477 0.22861 -0.01900
O 	O 	0.64067 0.89506 0.05930 -0.07400
O 	O 	0.61597 0.95515 0.08071 -0.07900
O 	O 	0.56719 0.56456 0.23449 -0.08300
O 	O 	0.54474 0.62572 0.25638 -0.08200
C 	C 	0.29283 0.76282 0.16133 -0.04900
C 	C 	0.24196 0.67146 0.17022 -0.00800
H 	H 	0.36237 0.80453 0.15693 0.08600
N 	N 	0.31272 0.89209 0.15657 -0.02100
O 	O 	0.29816 0.92019 0.17283 -0.07100
O 	O 	0.38494 0.94606 0.14142 -0.07300
C 	C 	0.68436 0.17504 0.50610 -0.05900
C 	C 	0.74777 0.25632 0.51584 -0.00800
C 	C 	0.84391 0.29230 0.52903 0.07100
C 	C 	0.87333 0.24312 0.53618 -0.01400
C 	C 	0.80803 0.15730 0.53163 -0.08800
C 	C 	0.71375 0.12520 0.51445 0.11400
N 	N 	0.64703 0.04114 0.50600 -0.03700
H 	H 	0.61145 0.14928 0.49285 0.08100
H 	H 	0.94688 0.27096 0.54644 0.05800
N 	N 	0.91205 0.37940 0.53357 -0.01700
O 	O 	0.56802 0.98655 0.51616 -0.05200
O 	O 	0.66352 0.02063 0.48658 -0.09200
O 	O 	0.95345 0.39359 0.56890 -0.10000
O 	O 	0.93653 0.44439 0.50252 -0.07400
C 	C 	0.84756 0.64671 0.51311 -0.01300
C 	C 	0.83844 0.63771 0.54851 -0.08100
C 	C 	0.78966 0.55355 0.57283 0.12400
C 	C 	0.76968 0.48338 0.56643 -0.05200
C 	C 	0.78510 0.49356 0.53244 -0.00800
C 	C 	0.82401 0.57613 0.50559 0.07700
N 	N 	0.83703 0.58812 0.46991 -0.02000
H 	H 	0.88113 0.71064 0.49310 0.06100
H 	H 	0.73371 0.41893 0.58577 0.08100
N 	N 	0.75556 0.53804 0.60251 -0.02100
O 	O 	0.80434 0.62418 0.43568 -0.08700
O 	O 	0.88726 0.56880 0.47190 -0.07700
O 	O 	0.71619 0.57391 0.59415 -0.06800
O 	O 	0.75302 0.47979 0.63586 -0.07200
C 	C 	0.34770 0.20834 0.50756 -0.00700
C 	C 	0.32953 0.13956 0.54179 -0.09200
C 	C 	0.39610 0.12181 0.56554 0.11200
C 	C 	0.47393 0.16507 0.55215 -0.05400
C 	C 	0.48854 0.22932 0.51625 -0.01800
C 	C 	0.42530 0.25155 0.49398 0.07600
N 	N 	0.43867 0.31663 0.45704 -0.01800
H 	H 	0.29671 0.22252 0.48939 0.06600
H 	H 	0.52526 0.15135 0.57053 0.07800
N 	N 	0.38289 0.05738 0.60271 -0.02500
O 	O 	0.44976 0.31076 0.42932 -0.08300
O 	O 	0.43448 0.37897 0.45028 -0.07900
O 	O 	0.39799 0.00095 0.61198 -0.09800
O 	O 	0.35994 0.05768 0.62806 -0.09300
C 	C 	0.88284 0.31800 0.02227 -0.04800
C 	C 	0.78707 0.27775 0.01370 -0.01600
C 	C 	0.72315 0.19851 0.00181 0.07300
C 	C 	0.75398 0.15116 0.00830 -0.01500
C 	C 	0.84899 0.18604 0.02262 -0.07100
C 	C 	0.91386 0.27504 0.02344 0.07900
H 	H 	0.93302 0.38234 0.02778 0.07600
H 	H 	0.70364 0.08584 0.00383 0.07600
N 	N 	0.62780 0.16709 0.98244 -0.01400
O 	O 	0.60785 0.21864 0.95213 -0.08200
O 	O 	0.56114 0.08567 0.99359 -0.08400
C 	C 	0.87596 0.59456 0.08021 -0.00900
C 	C 	0.85499 0.64714 0.04487 -0.08300
C 	C 	0.82017 0.62666 0.00837 0.11000
C 	C 	0.81330 0.55842 0.00753 -0.06200
C 	C 	0.83233 0.50477 0.04291 -0.00800
C 	C 	0.86714 0.52525 0.07932 0.07200
N 	N 	0.88782 0.47190 0.11584 -0.01900
H 	H 	0.90328 0.60981 0.10836 0.05900
H 	H 	0.78399 0.54167 0.97956 0.08900
N 	N 	0.78908 0.67344 0.97221 -0.01900
O 	O 	0.85408 0.44180 0.14545 -0.08900
O 	O 	0.93644 0.44980 0.11880 -0.09500
O 	O 	0.73792 0.69021 0.97165 -0.07600
O 	O 	0.80490 0.69235 0.93915 -0.10200
C 	C 	0.41349 0.19207 0.05719 -0.01900
C 	C 	0.35818 0.10458 0.05678 -0.06500
C 	C 	0.39352 0.07552 0.04930 0.09000
C 	C 	0.48668 0.13029 0.04802 -0.04500
C 	C 	0.54236 0.21777 0.04852 -0.01500
C 	C 	0.50326 0.24974 0.05102 0.08100
N 	N 	0.55149 0.34110 0.04441 -0.01800
H 	H 	0.38579 0.21636 0.06086 0.07500
H 	H 	0.51452 0.10544 0.04491 0.08400
N 	N 	0.33330 0.99336 0.03975 -0.00800
O 	O 	0.55924 0.39151 0.00872 -0.08500
O 	O 	0.57967 0.37233 0.07326 -0.08200
O 	O 	0.34857 0.93429 0.06217 -0.07900
