data_crystal

_cell_length_a 23.15217
_cell_length_b 21.83156
_cell_length_c 19.81321
_cell_angle_alpha 92.70279
_cell_angle_beta  85.31933
_cell_angle_gamma 124.79419

_symmetry_space_group_name_	'P 1'
_symmetry_space_group_name_H-M	'P 1'

loop_
_symmetry_equiv_pos_as_xyz
  x,y,z

loop_
_atom_site_label
_atom_site_type_symbol
_atom_site_fract_x
_atom_site_fract_y
_atom_site_fract_z
_atom_site_charge
C 	C 	0.90396 0.09195 0.03902 -0.00200
C 	C 	0.96419 0.09365 0.01829 -0.03500
C 	C 	0.98572 0.05967 0.05776 -0.06000
C 	C 	0.94802 0.02520 0.11960 0.07300
C 	C 	0.88670 0.02176 0.13904 -0.06900
C 	C 	0.86489 0.05523 0.09915 -0.03100
N 	N 	0.96900 0.98908 0.16109 -0.13600
C 	C 	0.19110 0.11775 0.17244 -0.00500
C 	C 	0.15170 0.04055 0.18259 -0.03100
C 	C 	0.07827 0.99856 0.18546 -0.06400
C 	C 	0.04385 0.03328 0.17417 0.07000
C 	C 	0.08292 0.11172 0.17844 -0.06700
C 	C 	0.15655 0.15380 0.17544 -0.02900
C 	C 	0.88498 0.76860 0.08989 -0.00900
C 	C 	0.94424 0.82913 0.05534 -0.02800
C 	C 	0.97118 0.90177 0.07742 -0.06400
C 	C 	0.94051 0.91435 0.13614 0.07500
C 	C 	0.88168 0.85356 0.17089 -0.07000
C 	C 	0.85384 0.78099 0.14776 -0.02700
H 	H 	0.99496 0.12240 0.97218 0.03600
H 	H 	0.03291 0.06239 0.04162 0.03800
H 	H 	0.85625 0.99356 0.18539 0.04700
H 	H 	0.81846 0.05399 0.11566 0.03300
H 	H 	0.17804 0.01261 0.18410 0.03200
H 	H 	0.04871 0.93896 0.19251 0.04500
H 	H 	0.05665 0.13995 0.18063 0.04600
H 	H 	0.18670 0.21395 0.17130 0.03100
H 	H 	0.96965 0.81983 0.01166 0.03100
H 	H 	0.01746 0.94798 0.05078 0.03900
H 	H 	0.85754 0.86268 0.21573 0.04700
H 	H 	0.80795 0.73441 0.17458 0.03100
C 	C 	0.93125 0.11769 0.34362 -0.00000
C 	C 	0.88841 0.04071 0.33156 -0.02800
C 	C 	0.91673 0.99874 0.33059 -0.07000
C 	C 	0.98722 0.03282 0.34671 0.08700
C 	C 	0.03220 0.11150 0.34702 -0.07600
C 	C 	0.00384 0.15343 0.34814 -0.03300
N 	N 	0.01534 0.98842 0.35507 -0.14400
C 	C 	0.18712 0.09297 0.48256 -0.00600
C 	C 	0.12415 0.08487 0.50516 -0.02900
C 	C 	0.06659 0.04832 0.46472 -0.07200
C 	C 	0.07226 0.02119 0.40015 0.07400
C 	C 	0.13477 0.02795 0.37852 -0.07100
C 	C 	0.19206 0.06401 0.41927 -0.02900
C 	C 	0.87074 0.76025 0.41081 -0.00800
C 	C 	0.91843 0.78038 0.35410 -0.02800
C 	C 	0.96465 0.85526 0.33520 -0.06300
C 	C 	0.96381 0.91080 0.37278 0.07900
C 	C 	0.91521 0.89033 0.42935 -0.07300
C 	C 	0.86871 0.81540 0.44784 -0.02600
H 	H 	0.83288 0.01321 0.32445 0.03200
H 	H 	0.88355 0.93991 0.31887 0.04900
H 	H 	0.08864 0.13994 0.34848 0.05000
H 	H 	0.03789 0.21338 0.35447 0.03100
H 	H 	0.12020 0.10792 0.55355 0.03100
H 	H 	0.01890 0.04403 0.48212 0.04300
H 	H 	0.13928 0.00631 0.32958 0.04700
H 	H 	0.24075 0.07058 0.40123 0.03300
H 	H 	0.92131 0.73829 0.32604 0.03200
H 	H 	0.00282 0.87042 0.29280 0.04200
H 	H 	0.91309 0.93226 0.45842 0.04700
H 	H 	0.83226 0.80031 0.49194 0.03200
Co	Co	0.74574 0.32198 0.98945 1.18100
O 	O 	0.82809 0.32068 0.93913 -0.39000
Co	Co	0.60591 0.32787 0.02073 1.18200
O 	O 	0.66161 0.29564 0.93745 -0.46400
O 	O 	0.69029 0.42069 0.05354 -0.43400
O 	O 	0.73715 0.21918 0.97596 -0.35900
C 	C 	0.75250 0.46052 0.02021 0.33800
O 	O 	0.62213 0.36044 0.91697 -0.37000
C 	C 	0.47373 0.26333 0.05159 0.29200
C 	C 	0.68156 0.29653 0.11337 0.31700
O 	O 	0.52365 0.32729 0.07322 -0.38500
O 	O 	0.49828 0.23259 0.01335 -0.35800
O 	O 	0.74637 0.32024 0.09721 -0.38000
O 	O 	0.64381 0.27497 0.06156 -0.47100
O 	O 	0.78057 0.42949 0.98410 -0.53000
C 	C 	0.79903 0.25013 0.94562 0.29300
C 	C 	0.66053 0.33724 0.89373 0.29900
H 	H 	0.82667 0.46286 0.95638 0.16300
Co	Co	0.73480 0.32429 0.47465 1.18100
O 	O 	0.81022 0.32511 0.40817 -0.38700
Co	Co	0.59143 0.31920 0.52904 1.18100
O 	O 	0.63982 0.28685 0.43930 -0.46900
O 	O 	0.67700 0.42017 0.54373 -0.43000
O 	O 	0.72911 0.22344 0.45551 -0.36200
C 	C 	0.72876 0.45706 0.49650 0.32900
O 	O 	0.58681 0.33844 0.42492 -0.37600
C 	C 	0.46065 0.24319 0.57386 0.28700
C 	C 	0.69250 0.30763 0.60593 0.30900
O 	O 	0.50887 0.31120 0.58995 -0.38100
O 	O 	0.48796 0.21686 0.53348 -0.35700
O 	O 	0.75479 0.33144 0.57913 -0.37200
O 	O 	0.64503 0.27870 0.56190 -0.46600
O 	O 	0.76463 0.43020 0.46888 -0.52400
C 	C 	0.78379 0.25514 0.41334 0.29300
C 	C 	0.62645 0.31907 0.39620 0.30100
H 	H 	0.80920 0.46421 0.43926 0.16400
C 	C 	0.67788 0.31223 0.67883 -0.10900
C 	C 	0.65023 0.25006 0.72192 0.06000
C 	C 	0.64650 0.25961 0.79240 -0.03200
C 	C 	0.67229 0.33030 0.82040 -0.09700
C 	C 	0.70440 0.39306 0.77744 0.05500
C 	C 	0.70353 0.38268 0.70703 -0.02900
H 	H 	0.62344 0.21178 0.82547 0.04600
H 	H 	0.72788 0.43069 0.67401 0.04000
C 	C 	0.62577 0.17339 0.69398 -0.11800
C 	C 	0.74974 0.47170 0.80524 -0.11700
C 	C 	0.54518 0.11803 0.70135 -0.01200
H 	H 	0.52534 0.11570 0.75484 0.02700
H 	H 	0.53136 0.06142 0.68757 0.02400
C 	C 	0.82700 0.49761 0.80363 -0.01800
H 	H 	0.84655 0.49695 0.75063 0.02900
H 	H 	0.83117 0.45877 0.83376 0.02400
H 	H 	0.64472 0.17480 0.64040 0.06200
H 	H 	0.73143 0.47612 0.85757 0.05800
C 	C 	0.50780 0.13742 0.65567 -0.16300
C 	C 	0.87419 0.57637 0.83201 -0.16300
H 	H 	0.52573 0.13806 0.60183 0.07500
H 	H 	0.45003 0.09482 0.66169 0.05900
H 	H 	0.51837 0.19265 0.66960 0.06600
H 	H 	0.64927 0.15121 0.72290 0.04900
H 	H 	0.87011 0.61633 0.80372 0.05300
H 	H 	0.92986 0.59422 0.82727 0.05500
H 	H 	0.85906 0.57768 0.88632 0.05800
H 	H 	0.74570 0.50995 0.77400 0.04900
C 	C 	0.65261 0.28819 0.18352 -0.11500
C 	C 	0.66055 0.24783 0.23106 0.06900
C 	C 	0.64824 0.25603 0.30008 -0.04200
C 	C 	0.62744 0.30318 0.32252 -0.09500
C 	C 	0.61160 0.33705 0.27417 0.04900
C 	C 	0.62355 0.32770 0.20469 -0.02700
H 	H 	0.65538 0.22580 0.33658 0.04400
H 	H 	0.61404 0.35432 0.16686 0.02700
C 	C 	0.67612 0.19077 0.20892 -0.12100
C 	C 	0.58124 0.38170 0.29712 -0.11100
C 	C 	0.60842 0.11176 0.20495 -0.01000
H 	H 	0.57517 0.09759 0.25316 0.02900
H 	H 	0.62325 0.07147 0.19827 0.02500
C 	C 	0.56766 0.41787 0.24126 -0.02600
H 	H 	0.52872 0.37401 0.20734 0.04000
H 	H 	0.61774 0.45726 0.21117 0.03200
H 	H 	0.70805 0.20511 0.16007 0.06700
H 	H 	0.61852 0.42723 0.33080 0.05700
C 	C 	0.56539 0.10225 0.14586 -0.16400
C 	C 	0.53808 0.46111 0.27133 -0.15500
H 	H 	0.59855 0.11914 0.09748 0.07300
H 	H 	0.52077 0.04276 0.14184 0.05900
H 	H 	0.54335 0.13596 0.15416 0.07200
H 	H 	0.70893 0.19011 0.24648 0.05100
H 	H 	0.48734 0.42328 0.30104 0.05300
H 	H 	0.52864 0.48624 0.22987 0.05500
H 	H 	0.57604 0.50653 0.30475 0.05300
H 	H 	0.53011 0.34375 0.32635 0.06500
C 	C 	0.82999 0.68322 0.43692 0.01500
C 	C 	0.76378 0.62704 0.41260 -0.01400
C 	C 	0.72781 0.55412 0.43797 -0.00100
C 	C 	0.75772 0.53621 0.48527 -0.12500
C 	C 	0.82152 0.59337 0.51277 0.07000
C 	C 	0.85735 0.66628 0.48782 -0.08800
H 	H 	0.67765 0.51067 0.41888 0.02400
H 	H 	0.90657 0.71017 0.50844 0.04900
C 	C 	0.73230 0.64278 0.35742 -0.05100
C 	C 	0.84840 0.57910 0.57313 -0.08400
C 	C 	0.74678 0.61846 0.28823 -0.14400
H 	H 	0.75227 0.70258 0.35543 0.03700
H 	H 	0.67434 0.61163 0.36840 0.03100
H 	H 	0.80422 0.65194 0.27386 0.05500
H 	H 	0.71985 0.62677 0.24945 0.05100
H 	H 	0.72630 0.55843 0.28874 0.05300
C 	C 	0.82127 0.59638 0.63890 -0.13100
H 	H 	0.90701 0.61521 0.56995 0.04000
H 	H 	0.83300 0.52081 0.57470 0.05200
H 	H 	0.83857 0.65547 0.63976 0.05000
H 	H 	0.84288 0.58730 0.68225 0.04700
H 	H 	0.76278 0.55931 0.64459 0.05800
C 	C 	0.82562 0.22443 0.39653 -0.10200
C 	C 	0.84872 0.20144 0.44771 0.06400
C 	C 	0.88358 0.16706 0.42913 -0.08100
C 	C 	0.89875 0.15861 0.36079 0.01100
C 	C 	0.88017 0.18643 0.30978 -0.00700
C 	C 	0.84365 0.21909 0.32828 -0.00600
H 	H 	0.89908 0.14687 0.46809 0.04800
H 	H 	0.82920 0.24041 0.28937 0.03000
C 	C 	0.83815 0.21457 0.52219 -0.07500
C 	C 	0.90278 0.18591 0.23597 -0.05700
C 	C 	0.77365 0.14461 0.55566 -0.13400
H 	H 	0.83336 0.26221 0.53021 0.05100
H 	H 	0.88535 0.23006 0.54860 0.04100
H 	H 	0.72552 0.12549 0.52932 0.06900
H 	H 	0.76554 0.15699 0.60923 0.05300
H 	H 	0.78162 0.09898 0.55471 0.05200
C 	C 	0.97532 0.25654 0.21777 -0.13200
H 	H 	0.86411 0.18191 0.20298 0.03600
H 	H 	0.90405 0.13663 0.22410 0.04300
H 	H 	0.97399 0.30651 0.22501 0.05300
H 	H 	0.99120 0.25392 0.16392 0.05000
H 	H 	0.01530 0.26192 0.24960 0.04900
C 	C 	0.25052 0.13896 0.52141 0.01200
C 	C 	0.26547 0.10721 0.57197 -0.00900
C 	C 	0.33344 0.14744 0.59586 -0.00600
C 	C 	0.38686 0.21740 0.56852 -0.09800
C 	C 	0.36960 0.25179 0.52254 0.06200
C 	C 	0.30056 0.21308 0.50188 -0.08100
H 	H 	0.34616 0.12170 0.63200 0.02700
H 	H 	0.28691 0.23926 0.46730 0.04400
C 	C 	0.21080 0.02920 0.59843 -0.05100
C 	C 	0.42404 0.32945 0.49484 -0.07200
C 	C 	0.21727 0.97149 0.55878 -0.14300
H 	H 	0.15654 0.01466 0.59642 0.03600
H 	H 	0.21795 0.02605 0.65269 0.03200
H 	H 	0.20808 0.97134 0.50465 0.05800
H 	H 	0.17731 0.91514 0.58000 0.05000
H 	H 	0.27046 0.98357 0.56261 0.05600
C 	C 	0.43090 0.38898 0.54386 -0.13600
H 	H 	0.40855 0.33668 0.44569 0.03600
H 	H 	0.47616 0.33879 0.48330 0.04400
H 	H 	0.37999 0.38338 0.55118 0.05200
H 	H 	0.47175 0.44516 0.52281 0.05000
H 	H 	0.44657 0.38399 0.59370 0.06700
C 	C 	0.85633 0.69192 0.06643 0.01800
C 	C 	0.80772 0.65891 0.01530 -0.02300
C 	C 	0.77804 0.58414 0.99761 0.01100
C 	C 	0.79510 0.54169 0.03063 -0.13600
C 	C 	0.84461 0.57503 0.08095 0.07200
C 	C 	0.87509 0.65013 0.09802 -0.09000
H 	H 	0.74001 0.55830 0.95914 0.02200
H 	H 	0.91184 0.67548 0.13763 0.04800
C 	C 	0.78780 0.70286 0.97826 -0.04400
C 	C 	0.86096 0.52969 0.12084 -0.08100
C 	C 	0.83120 0.73245 0.91090 -0.14500
H 	H 	0.79418 0.74997 0.00897 0.03600
H 	H 	0.73103 0.66617 0.96804 0.03300
H 	H 	0.88834 0.76917 0.91908 0.05500
H 	H 	0.81634 0.76527 0.88532 0.05100
H 	H 	0.82088 0.68549 0.87726 0.05100
C 	C 	0.81304 0.49908 0.18573 -0.13300
H 	H 	0.91671 0.56532 0.13458 0.03900
H 	H 	0.85581 0.48304 0.09035 0.04500
H 	H 	0.82466 0.54549 0.22076 0.05000
H 	H 	0.82212 0.46139 0.21136 0.05700
H 	H 	0.75681 0.46710 0.17425 0.06600
C 	C 	0.84022 0.21800 0.95072 -0.10000
C 	C 	0.90252 0.25482 0.98678 0.06400
C 	C 	0.92387 0.21268 0.01307 -0.08300
C 	C 	0.88632 0.13572 0.00200 0.00800
C 	C 	0.82988 0.10082 0.95900 -0.00500
C 	C 	0.80822 0.14280 0.93274 -0.00600
H 	H 	0.96933 0.23982 0.04329 0.04600
H 	H 	0.76339 0.11565 0.90163 0.03300
C 	C 	0.94712 0.33849 0.99774 -0.06800
C 	C 	0.79423 0.01979 0.93850 -0.05400
C 	C 	0.92409 0.35953 0.06412 -0.13400
H 	H 	0.94729 0.36888 0.95440 0.05600
H 	H 	0.00321 0.35872 0.00019 0.03000
H 	H 	0.86787 0.33904 0.06506 0.05500
H 	H 	0.95634 0.42115 0.06971 0.04900
H 	H 	0.93169 0.33520 0.10774 0.05300
C 	C 	0.83503 0.01194 0.87824 -0.14200
H 	H 	0.73974 0.99606 0.92434 0.03500
H 	H 	0.78874 0.98528 0.98118 0.04000
H 	H 	0.83858 0.04387 0.83419 0.05400
H 	H 	0.80734 0.95226 0.86369 0.05000
H 	H 	0.88901 0.03258 0.89142 0.05700
C 	C 	0.40109 0.22246 0.08178 -0.10200
C 	C 	0.34386 0.19685 0.04121 0.05800
C 	C 	0.27589 0.16387 0.07220 -0.08000
C 	C 	0.26415 0.15666 0.14278 0.01100
C 	C 	0.32119 0.18159 0.18343 -0.00900
C 	C 	0.38937 0.21492 0.15243 -0.00400
H 	H 	0.23167 0.14296 0.04117 0.04500
H 	H 	0.43353 0.23548 0.18345 0.03300
C 	C 	0.35404 0.20234 0.96462 -0.07200
C 	C 	0.31082 0.17689 0.25995 -0.05300
C 	C 	0.34427 0.13193 0.93355 -0.13600
H 	H 	0.40664 0.25192 0.94745 0.04900
H 	H 	0.31494 0.20972 0.94443 0.03900
H 	H 	0.38263 0.12276 0.95241 0.07100
H 	H 	0.35282 0.13774 0.87760 0.05300
H 	H 	0.28991 0.08257 0.94629 0.05300
C 	C 	0.31525 0.24502 0.28982 -0.14200
H 	H 	0.35199 0.17360 0.28118 0.03700
H 	H 	0.25952 0.12550 0.27676 0.03900
H 	H 	0.36727 0.29685 0.27511 0.05300
H 	H 	0.30905 0.24086 0.34583 0.05200
H 	H 	0.27271 0.24810 0.27206 0.05500
