data_crystal

_cell_length_a 25.85219
_cell_length_b 26.71475
_cell_length_c 45.15704
_cell_angle_alpha 95.48818
_cell_angle_beta  95.48771
_cell_angle_gamma 125.82909

_symmetry_space_group_name_	'P 1'
_symmetry_space_group_name_H-M	'P 1'

loop_
_symmetry_equiv_pos_as_xyz
  x,y,z

loop_
_atom_site_label
_atom_site_type_symbol
_atom_site_fract_x
_atom_site_fract_y
_atom_site_fract_z
_atom_site_charge
N 	N 	0.97668 0.01530 0.47040 -0.14200
N 	N 	0.77611 0.04259 0.38822 -0.10300
C 	C 	0.11493 0.03840 0.45054 0.00400
C 	C 	0.21051 0.05261 0.43423 0.10200
C 	C 	0.90242 0.03857 0.94104 0.09800
C 	C 	0.79624 0.03816 0.41103 0.10100
C 	C 	0.96046 0.02769 0.99511 0.12800
C 	C 	0.05626 0.03553 0.99772 0.13200
N 	N 	0.02629 0.06349 0.99959 -0.12800
O 	O 	0.65470 0.16811 0.96901 -0.40900
C 	C 	0.82143 0.03266 0.43963 -0.03000
C 	C 	0.82566 0.06625 0.46701 0.01500
C 	C 	0.84470 0.05646 0.49489 -0.02400
C 	C 	0.86598 0.01841 0.49533 -0.00800
C 	C 	0.81352 0.11459 0.46651 0.02400
C 	C 	0.84385 0.08672 0.52306 0.09800
C 	C 	0.75113 0.09802 0.46786 -0.03600
C 	C 	0.74101 0.14465 0.47000 0.02000
C 	C 	0.69756 0.03308 0.46739 0.09500
C 	C 	0.67746 0.12788 0.47281 0.06200
C 	C 	0.88709 0.00949 0.52397 0.10100
N 	N 	0.62679 0.11456 0.47506 -0.11900
N 	N 	0.90401 0.00240 0.54681 -0.09800
C 	C 	0.18265 0.07251 0.45427 -0.02700
C 	C 	0.22313 0.12515 0.47800 0.01600
C 	C 	0.19478 0.14057 0.49880 -0.02600
C 	C 	0.12731 0.09900 0.49807 0.00100
C 	C 	0.08747 0.04667 0.47419 -0.02600
C 	C 	0.29528 0.16499 0.48061 0.02500
C 	C 	0.32428 0.19865 0.45762 -0.03700
C 	C 	0.33454 0.16676 0.50529 -0.03800
C 	C 	0.28676 0.20585 0.43481 0.10500
C 	C 	0.30505 0.12849 0.52788 0.10300
C 	C 	0.09907 0.11001 0.52174 0.09800
N 	N 	0.25676 0.21153 0.41662 -0.10200
N 	N 	0.28147 0.09794 0.54590 -0.10500
N 	N 	0.07646 0.11877 0.54061 -0.09800
C 	C 	0.88693 0.10360 0.02750 -0.02300
C 	C 	0.85340 0.10322 0.00083 0.01300
C 	C 	0.85800 0.08117 0.97227 -0.02400
C 	C 	0.89581 0.05923 0.97039 -0.00400
C 	C 	0.92755 0.05765 0.99707 -0.01400
C 	C 	0.92367 0.08043 0.02562 -0.00400
C 	C 	0.81460 0.12780 0.00272 0.02600
C 	C 	0.82355 0.08087 0.94486 0.09700
C 	C 	0.95663 0.07903 0.05304 0.10000
C 	C 	0.73775 0.17092 0.99970 -0.08400
C 	C 	0.71031 0.10894 0.00387 0.02500
C 	C 	0.74859 0.08721 0.00511 -0.03700
C 	C 	0.64280 0.06769 0.00695 0.08800
C 	C 	0.72003 0.02295 0.00848 0.09700
C 	C 	0.88343 0.12772 0.05680 0.10100
N 	N 	0.58893 0.03479 0.00941 -0.09800
N 	N 	0.79602 0.08067 0.92302 -0.10900
N 	N 	0.98294 0.07786 0.07489 -0.09700
C 	C 	0.23019 0.10301 0.02945 -0.02400
C 	C 	0.26160 0.13312 0.00601 0.01400
C 	C 	0.22653 0.13580 0.98109 -0.02400
C 	C 	0.15943 0.10577 0.97889 -0.00200
C 	C 	0.12763 0.07401 0.00189 -0.01500
C 	C 	0.16346 0.07438 0.02762 -0.00300
C 	C 	0.33198 0.16256 0.00768 0.02600
C 	C 	0.25953 0.16911 0.95765 0.10000
C 	C 	0.13160 0.04557 0.05225 0.10000
C 	C 	0.35145 0.12871 0.99301 -0.03800
C 	C 	0.41779 0.15821 0.99267 0.02400
C 	C 	0.30309 0.06376 0.97811 0.10400
C 	C 	0.43761 0.12428 0.97654 0.08100
C 	C 	0.26653 0.10114 0.05529 0.10100
C 	C 	0.12276 0.10623 0.95264 0.10000
N 	N 	0.45345 0.09721 0.96367 -0.11100
N 	N 	0.28593 0.19570 0.93897 -0.10300
N 	N 	0.09343 0.10653 0.93172 -0.09700
N 	N 	0.10610 0.02257 0.07188 -0.09700
N 	N 	0.29561 0.09969 0.07590 -0.10200
C 	C 	0.69604 0.19140 0.99461 0.29500
H 	H 	0.65000 0.24054 0.29571 0.05200
H 	H 	0.66772 0.25427 0.24343 0.05100
C 	C 	0.86516 0.17746 0.46589 -0.03900
C 	C 	0.92890 0.19421 0.46367 0.10400
N 	N 	0.97973 0.20746 0.46190 -0.10400
N 	N 	0.84314 0.11092 0.54552 -0.10900
C 	C 	0.23466 0.19945 0.52037 0.10200
C 	C 	0.38969 0.22508 0.45678 0.02200
C 	C 	0.40249 0.20490 0.50764 0.02300
C 	C 	0.44356 0.22158 0.53659 0.09700
C 	C 	0.41360 0.24202 0.42888 0.08200
C 	C 	0.84298 0.19081 0.00044 -0.04000
N 	N 	0.88058 0.14698 0.08017 -0.10300
O 	O 	0.56739 0.23671 0.01689 -0.34800
H 	H 	0.62817 0.19082 0.70537 0.04900
H 	H 	0.62904 0.18897 0.65064 0.04800
C 	C 	0.79312 0.20792 0.47027 -0.08400
C 	C 	0.43016 0.23047 0.48238 -0.07200
N 	N 	0.43255 0.25543 0.40658 -0.11100
C 	C 	0.80441 0.21208 0.99829 0.02300
C 	C 	0.46473 0.22118 0.00752 -0.07600
Cu	Cu	0.66502 0.22227 0.94250 0.88300
O 	O 	0.71182 0.24266 0.01191 -0.35700
H 	H 	0.58126 0.22912 0.95921 0.16900
H 	H 	0.58730 0.22992 0.45080 0.17600
C 	C 	0.85491 0.22404 0.46769 0.02600
N 	N 	0.47622 0.23487 0.55973 -0.09700
C 	C 	0.37906 0.22472 0.02341 -0.03800
C 	C 	0.91176 0.23345 0.99981 0.10300
C 	C 	0.53349 0.25436 0.00477 0.28600
O 	O 	0.53185 0.24668 0.49965 -0.36500
C 	C 	0.63697 0.22893 0.66471 -0.02500
C 	C 	0.44545 0.25356 0.02386 0.02600
C 	C 	0.50055 0.26167 0.48241 0.28900
C 	C 	0.63660 0.23003 0.69569 -0.03900
C 	C 	0.68412 0.28728 0.29114 -0.02500
N 	N 	0.26654 0.24647 0.53757 -0.10200
N 	N 	0.90777 0.02207 0.91764 -0.09900
O 	O 	0.62916 0.25758 0.96518 -0.62800
O 	O 	0.67233 0.24503 0.54827 -0.41700
Cu	Cu	0.65897 0.27531 0.00977 0.92800
O 	O 	0.74316 0.25698 0.45493 -0.35100
C 	C 	0.35902 0.25911 0.03887 0.10500
C 	C 	0.78378 0.25765 0.47526 0.29200
N 	N 	0.96663 0.26740 0.99931 -0.10500
C 	C 	0.83263 0.27546 0.99335 0.07000
O 	O 	0.61900 0.27469 0.46064 -0.64000
N 	N 	0.26444 0.01192 0.96623 -0.10400
N 	N 	0.23279 0.03675 0.41824 -0.10400
C 	C 	0.65702 0.27879 0.56229 0.31000
Cu	Cu	0.74266 0.28074 0.52567 0.88100
C 	C 	0.65358 0.27911 0.59381 -0.10300
C 	C 	0.65116 0.27946 0.62034 0.05700
O 	O 	0.69806 0.28233 0.91554 -0.41800
C 	C 	0.64819 0.27956 0.65201 -0.00400
C 	C 	0.90784 0.28845 0.46677 0.08800
Cu	Cu	0.62378 0.28840 0.50313 0.91400
C 	C 	0.64751 0.28186 0.71418 0.01300
C 	C 	0.64962 0.28412 0.74705 0.01300
H 	H 	0.73359 0.28431 0.75477 0.04900
N 	N 	0.34295 0.28648 0.05120 -0.10300
H 	H 	0.56626 0.28465 0.74691 0.05100
C 	C 	0.69773 0.28506 0.76498 -0.03900
C 	C 	0.60367 0.28550 0.76057 -0.03900
C 	C 	0.69980 0.28723 0.79614 -0.02600
C 	C 	0.60582 0.28772 0.79177 -0.02500
C 	C 	0.07463 0.00248 0.42109 0.09400
H 	H 	0.73711 0.28793 0.80982 0.04700
C 	C 	0.65386 0.28854 0.80960 -0.00500
H 	H 	0.57014 0.28871 0.80203 0.05000
C 	C 	0.01779 0.99966 0.47430 0.15300
C 	C 	0.69437 0.29504 0.26155 -0.03700
N 	N 	0.65486 0.98123 0.46701 -0.09800
C 	C 	0.86903 0.99086 0.46795 -0.01000
C 	C 	0.84290 0.99473 0.44013 0.00300
N 	N 	0.92476 0.96414 0.98872 -0.12800
C 	C 	0.95475 0.93626 0.98712 0.13400
N 	N 	0.02046 0.97196 0.99164 -0.12600
C 	C 	0.91197 0.97121 0.46837 0.13900
N 	N 	0.88789 0.91042 0.46908 -0.13100
C 	C 	0.92921 0.89458 0.47320 0.13400
N 	N 	0.99424 0.93973 0.47641 -0.13500
Cu	Cu	0.66455 0.34459 0.95887 0.91400
Cu	Cu	0.65265 0.38979 0.01919 0.90300
C 	C 	0.69392 0.34772 0.06981 0.31100
C 	C 	0.66153 0.29436 0.90059 0.30900
O 	O 	0.69969 0.36605 0.00126 -0.64100
O 	O 	0.66194 0.36925 0.05991 -0.36900
O 	O 	0.70497 0.43023 0.95408 -0.36300
C 	C 	0.71036 0.47283 0.97429 0.29300
O 	O 	0.56257 0.30586 0.99338 -0.38100
O 	O 	0.67394 0.45661 0.99529 -0.37400
O 	O 	0.69795 0.30853 0.05183 -0.35200
O 	O 	0.63833 0.31934 0.91544 -0.37000
H 	H 	0.74752 0.39748 0.00652 0.17700
Cu	Cu	0.71713 0.31490 0.45979 0.92700
Cu	Cu	0.60271 0.32804 0.44523 0.90300
C 	C 	0.67452 0.31833 0.39931 0.30700
O 	O 	0.76862 0.40940 0.46108 -0.35100
O 	O 	0.71783 0.32609 0.50418 -0.62900
O 	O 	0.80414 0.29230 0.50229 -0.41000
O 	O 	0.62352 0.31558 0.40483 -0.36300
C 	C 	0.74481 0.43963 0.46905 0.28700
O 	O 	0.68706 0.40908 0.47608 -0.37700
O 	O 	0.53248 0.30957 0.46828 -0.37400
O 	O 	0.69896 0.29679 0.41646 -0.35200
O 	O 	0.63373 0.30247 0.54660 -0.36800
H 	H 	0.74570 0.37102 0.51394 0.17000
C 	C 	0.65823 0.33099 0.67034 -0.02500
C 	C 	0.65791 0.33218 0.70135 -0.03900
C 	C 	0.65603 0.29062 0.84169 0.05600
C 	C 	0.65833 0.29235 0.86858 -0.10400
H 	H 	0.66688 0.37027 0.66065 0.05000
H 	H 	0.66649 0.37244 0.71544 0.05100
C 	C 	0.71657 0.33986 0.31458 0.00200
C 	C 	0.73729 0.35549 0.25523 0.01400
C 	C 	0.77132 0.40793 0.27893 -0.03700
C 	C 	0.76086 0.40010 0.30850 -0.02500
C 	C 	0.74248 0.36411 0.22357 0.01400
C 	C 	0.76132 0.33403 0.20529 -0.03800
C 	C 	0.75765 0.33512 0.17427 -0.02500
C 	C 	0.73536 0.36645 0.16139 -0.00000
C 	C 	0.71960 0.39908 0.17986 -0.02500
C 	C 	0.72305 0.39788 0.21083 -0.03700
C 	C 	0.72218 0.35973 0.12898 0.05500
C 	C 	0.71069 0.35484 0.10192 -0.08800
C 	C 	0.70199 0.33231 0.34453 0.05600
C 	C 	0.68982 0.32604 0.36961 -0.08100
H 	H 	0.80488 0.45475 0.27433 0.05200
H 	H 	0.78634 0.44092 0.32656 0.05300
H 	H 	0.77703 0.30838 0.21495 0.05100
H 	H 	0.77024 0.31006 0.16015 0.05200
H 	H 	0.70258 0.42360 0.17006 0.05200
H 	H 	0.70845 0.42130 0.22472 0.05200
C 	C 	0.78743 0.59182 0.44840 -0.03800
C 	C 	0.83109 0.63551 0.47477 0.02600
C 	C 	0.85138 0.61561 0.49809 -0.03800
C 	C 	0.82649 0.55175 0.49538 0.02400
C 	C 	0.78181 0.50788 0.46921 -0.07700
C 	C 	0.76433 0.52859 0.44527 0.02200
C 	C 	0.85971 0.70360 0.47678 0.01400
C 	C 	0.89747 0.66072 0.52490 0.10400
C 	C 	0.72248 0.48482 0.41737 0.06900
C 	C 	0.83248 0.72920 0.49184 -0.02400
C 	C 	0.85629 0.79214 0.49147 -0.00400
C 	C 	0.90358 0.82791 0.47378 -0.01400
C 	C 	0.92930 0.80104 0.45805 -0.00200
C 	C 	0.91048 0.74088 0.46132 -0.02500
C 	C 	0.77984 0.69073 0.50759 0.10000
C 	C 	0.97279 0.83369 0.43745 0.09800
C 	C 	0.83386 0.82049 0.51010 0.10200
C 	C 	0.94296 0.71690 0.44845 0.10000
C 	C 	0.76608 0.61202 0.42452 0.10200
C 	C 	0.84611 0.53103 0.51964 0.08100
N 	N 	0.81590 0.84303 0.52498 -0.09700
N 	N 	0.73781 0.65997 0.52015 -0.10300
N 	N 	0.00760 0.85898 0.42091 -0.09400
N 	N 	0.96882 0.69769 0.43821 -0.10300
N 	N 	0.93424 0.69679 0.54630 -0.10400
N 	N 	0.86173 0.51446 0.53900 -0.11300
N 	N 	0.68914 0.45031 0.39499 -0.10800
N 	N 	0.74912 0.62823 0.40549 -0.10400
C 	C 	0.83989 0.96115 0.41204 0.10000
N 	N 	0.95007 0.33986 0.46604 -0.09900
N 	N 	0.83752 0.93433 0.38963 -0.09600
N 	N 	0.04254 0.97433 0.39745 -0.08800
C 	C 	0.75014 0.62407 0.95368 -0.03800
C 	C 	0.81546 0.66710 0.96858 0.02700
C 	C 	0.84840 0.64506 0.98185 -0.03800
C 	C 	0.81451 0.58061 0.98249 0.02200
C 	C 	0.74785 0.53825 0.96968 -0.07400
C 	C 	0.71634 0.55954 0.95416 0.02700
C 	C 	0.84805 0.73586 0.97240 0.01400
C 	C 	0.91681 0.68898 0.99535 0.10400
C 	C 	0.64914 0.51507 0.93886 0.09200
C 	C 	0.84614 0.76772 0.99854 -0.02300
C 	C 	0.88091 0.83345 0.00333 -0.00300
C 	C 	0.91608 0.86719 0.98152 -0.01400
C 	C 	0.91571 0.83497 0.95475 -0.00300
C 	C 	0.88239 0.76941 0.95038 -0.02300
C 	C 	0.80867 0.73272 0.02057 0.10000
C 	C 	0.94904 0.86926 0.93160 0.10100
C 	C 	0.88190 0.86662 0.03103 0.10200
C 	C 	0.88376 0.73642 0.92338 0.10100
C 	C 	0.71761 0.64645 0.93830 0.10500
C 	C 	0.84779 0.55795 0.99684 0.07500
N 	N 	0.88274 0.89315 0.05311 -0.09600
N 	N 	0.77874 0.70471 0.03812 -0.10300
N 	N 	0.97566 0.89669 0.91317 -0.09700
N 	N 	0.88482 0.71004 0.90185 -0.10300
N 	N 	0.97139 0.72409 0.00611 -0.10300
N 	N 	0.87431 0.53984 0.00828 -0.11000
N 	N 	0.59553 0.47957 0.92664 -0.09900
N 	N 	0.69173 0.66439 0.92604 -0.10300
N 	N 	0.85513 0.32600 0.98939 -0.11200
N 	N 	0.69732 0.97168 0.01117 -0.09600
C 	C 	0.49403 0.31615 0.04155 0.07700
N 	N 	0.53273 0.36608 0.05567 -0.11400
