data_crystal

_cell_length_a 23.31834
_cell_length_b 23.45805
_cell_length_c 26.75168
_cell_angle_alpha 95.44854
_cell_angle_beta  95.44872
_cell_angle_gamma 125.96240

_symmetry_space_group_name_	'P 1'
_symmetry_space_group_name_H-M	'P 1'

loop_
_symmetry_equiv_pos_as_xyz
  x,y,z

loop_
_atom_site_label
_atom_site_type_symbol
_atom_site_fract_x
_atom_site_fract_y
_atom_site_fract_z
_atom_site_charge
C 	C 	0.08709 0.05460 0.98851 0.04000
C 	C 	0.05786 0.09235 0.99367 -0.08500
H 	H 	0.09189 0.14990 0.99555 0.05200
H 	H 	0.01714 0.08365 0.45879 0.04900
C 	C 	0.24213 0.11812 0.47538 0.04300
C 	C 	0.27927 0.18332 0.45808 -0.07000
C 	C 	0.35248 0.22050 0.45645 0.02000
C 	C 	0.10071 0.04014 0.46732 -0.01500
C 	C 	0.35235 0.12850 0.49120 0.02100
C 	C 	0.27902 0.09133 0.49274 -0.06900
C 	C 	0.16528 0.07610 0.47157 -0.02200
C 	C 	0.38909 0.19253 0.47203 -0.08700
H 	H 	0.25112 0.20450 0.44491 0.05000
H 	H 	0.38053 0.27061 0.44257 0.03400
H 	H 	0.38002 0.10651 0.50354 0.03700
H 	H 	0.25057 0.04097 0.50631 0.05200
C 	C 	0.30897 0.15094 0.98629 -0.01100
C 	C 	0.28909 0.16847 0.02965 -0.02600
C 	C 	0.21685 0.13948 0.02962 -0.03000
C 	C 	0.18438 0.07679 0.94234 -0.03600
C 	C 	0.25664 0.10578 0.94243 -0.03200
C 	C 	0.38324 0.18004 0.98676 0.04700
C 	C 	0.16406 0.09274 0.98621 -0.00900
H 	H 	0.32943 0.20391 0.06354 0.04200
H 	H 	0.20166 0.15188 0.06372 0.04100
H 	H 	0.14399 0.04081 0.90861 0.04000
H 	H 	0.27177 0.09259 0.90861 0.04200
C 	C 	0.98692 0.02619 0.45651 -0.06500
H 	H 	0.97809 0.13053 0.92751 0.04000
C 	C 	0.98446 0.05555 0.99606 0.04100
Cu	Cu	0.65483 0.25241 0.00836 0.93100
Cu	Cu	0.71075 0.25762 0.89998 0.87000
Cu	Cu	0.68702 0.36143 0.94029 0.89600
Cu	Cu	0.65654 0.38474 0.04290 0.89900
C 	C 	0.67534 0.30442 0.11534 0.28900
O 	O 	0.55002 0.21039 0.00963 -0.35000
C 	C 	0.66688 0.31476 0.82891 0.28400
O 	O 	0.71221 0.36337 0.01130 -0.63700
O 	O 	0.64175 0.25728 0.93513 -0.64300
O 	O 	0.70043 0.20245 0.00438 -0.36000
O 	O 	0.77880 0.27862 0.95732 -0.44100
O 	O 	0.64454 0.33475 0.10207 -0.37600
O 	O 	0.73807 0.46406 0.94856 -0.37700
C 	C 	0.73886 0.50511 0.98641 0.30500
C 	C 	0.52151 0.24019 0.99091 0.29600
O 	O 	0.56353 0.30661 0.98410 -0.39500
O 	O 	0.69722 0.47821 0.02078 -0.38300
O 	O 	0.68289 0.26625 0.08077 -0.35300
C 	C 	0.76092 0.23161 0.98709 0.30400
O 	O 	0.66940 0.35817 0.86611 -0.36900
O 	O 	0.66503 0.25937 0.83767 -0.41300
H 	H 	0.76457 0.39536 0.02557 0.17200
H 	H 	0.59155 0.22540 0.91580 0.18000
Cu	Cu	0.71720 0.31452 0.43343 0.92700
Cu	Cu	0.72603 0.27370 0.54618 0.86800
Cu	Cu	0.61227 0.28496 0.50539 0.89800
Cu	Cu	0.57427 0.29752 0.39834 0.89600
C 	C 	0.66513 0.29384 0.32669 0.29100
O 	O 	0.75577 0.41647 0.42650 -0.36100
C 	C 	0.66733 0.31669 0.61632 0.28200
O 	O 	0.60581 0.25323 0.43495 -0.63900
O 	O 	0.71737 0.33451 0.50695 -0.64100
O 	O 	0.77050 0.27204 0.43827 -0.36800
O 	O 	0.70222 0.20069 0.49197 -0.43900
O 	O 	0.60576 0.28676 0.33323 -0.37800
O 	O 	0.50907 0.22923 0.50091 -0.37900
C 	C 	0.46449 0.22843 0.46595 0.29500
C 	C 	0.72044 0.44223 0.43767 0.28700
O 	O 	0.65570 0.39974 0.44796 -0.39400
O 	O 	0.48722 0.26544 0.42873 -0.39200
O 	O 	0.69941 0.28211 0.36145 -0.35800
C 	C 	0.74538 0.21499 0.45919 0.28900
O 	O 	0.62119 0.31098 0.57940 -0.37000
O 	O 	0.72506 0.32279 0.60695 -0.41200
H 	H 	0.57652 0.20054 0.42422 0.17100
H 	H 	0.74784 0.38580 0.52330 0.17900
C 	C 	0.65829 0.32399 0.77538 -0.06600
C 	C 	0.71510 0.38487 0.75904 -0.00300
C 	C 	0.71486 0.38554 0.70632 0.00200
C 	C 	0.65858 0.32478 0.67009 -0.06600
C 	C 	0.59750 0.26809 0.68647 -0.00400
C 	C 	0.59716 0.26805 0.73919 0.00200
C 	C 	0.77468 0.44581 0.79636 0.07800
C 	C 	0.53604 0.20892 0.64919 0.07800
C 	C 	0.53403 0.21069 0.75624 0.08300
C 	C 	0.77203 0.44873 0.68934 0.08500
N 	N 	0.48367 0.16493 0.76987 -0.11700
N 	N 	0.81765 0.49916 0.67578 -0.11600
N 	N 	0.48700 0.16175 0.61943 -0.11600
N 	N 	0.82220 0.49444 0.82616 -0.11500
C 	C 	0.68535 0.29896 0.16972 -0.06100
C 	C 	0.73372 0.36179 0.20694 0.00100
C 	C 	0.73075 0.35948 0.25922 -0.00100
C 	C 	0.68035 0.29405 0.27429 -0.06100
C 	C 	0.63829 0.22995 0.23765 0.00300
C 	C 	0.63995 0.23240 0.18527 0.00300
C 	C 	0.78596 0.42885 0.19133 0.07500
C 	C 	0.59243 0.16167 0.25382 0.08900
C 	C 	0.59285 0.16695 0.14737 0.09400
C 	C 	0.77836 0.42459 0.29734 0.08100
N 	N 	0.55525 0.11473 0.11713 -0.10700
N 	N 	0.81643 0.47665 0.32767 -0.11000
N 	N 	0.55585 0.10722 0.26675 -0.11400
N 	N 	0.82762 0.48234 0.17885 -0.11900
C 	C 	0.70729 0.53933 0.42909 0.01800
C 	C 	0.75243 0.51845 0.43761 -0.08700
H 	H 	0.86311 0.55553 0.45374 0.03800
H 	H 	0.64920 0.49958 0.42102 0.02800
C 	C 	0.81795 0.08501 0.43954 0.04100
C 	C 	0.86042 0.15544 0.43051 -0.06900
C 	C 	0.83542 0.19701 0.43447 0.01700
C 	C 	0.87464 0.01487 0.44437 -0.01800
C 	C 	0.72396 0.09671 0.45438 0.01700
C 	C 	0.74913 0.05534 0.45048 -0.07000
C 	C 	0.84745 0.04551 0.44166 -0.02100
C 	C 	0.76772 0.16846 0.44769 -0.09300
H 	H 	0.91361 0.17868 0.42180 0.05100
H 	H 	0.86971 0.25206 0.42902 0.03600
H 	H 	0.67107 0.07346 0.46365 0.03200
H 	H 	0.71575 0.00080 0.45713 0.05000
C 	C 	0.87881 0.15509 0.99939 -0.01500
C 	C 	0.88119 0.12250 0.03999 -0.02500
C 	C 	0.91813 0.09235 0.03995 -0.03100
C 	C 	0.80168 0.20418 0.99388 -0.11700
C 	C 	0.95183 0.12883 0.95925 -0.03700
C 	C 	0.91508 0.15911 0.95943 -0.03200
C 	C 	0.83669 0.18171 0.99741 0.04800
C 	C 	0.95264 0.09438 0.99912 -0.00900
H 	H 	0.85357 0.11952 0.07114 0.04400
H 	H 	0.91880 0.06626 0.07107 0.04200
H 	H 	0.91368 0.18448 0.92801 0.03600
C 	C 	0.44599 0.20607 0.98805 -0.10500
C 	C 	0.82761 0.57068 0.44706 0.02200
C 	C 	0.77701 0.57988 0.98544 -0.10200
C 	C 	0.04308 0.98029 0.98622 -0.08600
H 	H 	0.06587 0.95125 0.98296 0.05400
C 	C 	0.02346 0.99582 0.46128 0.03000
H 	H 	0.01323 0.89843 0.46169 0.05000
C 	C 	0.98472 0.92182 0.45820 -0.06800
C 	C 	0.94064 0.98105 0.99350 -0.08400
C 	C 	0.96992 0.94345 0.98862 0.04200
H 	H 	0.88377 0.95235 0.99470 0.05200
C 	C 	0.91139 0.98249 0.44854 0.03800
C 	C 	0.90931 0.87770 0.45007 0.04200
C 	C 	0.87231 0.90794 0.44528 -0.07600
H 	H 	0.81386 0.87391 0.43908 0.05400
C 	C 	0.81186 0.66361 0.44095 0.04200
C 	C 	0.85717 0.64302 0.44875 -0.06700
C 	C 	0.87063 0.80140 0.44634 -0.01900
C 	C 	0.73696 0.61158 0.43085 -0.06900
C 	C 	0.84249 0.73830 0.44370 -0.01800
H 	H 	0.91523 0.68303 0.45643 0.05200
H 	H 	0.70163 0.62702 0.42449 0.05000
C 	C 	0.84629 0.71800 0.98501 -0.01000
C 	C 	0.85619 0.76353 0.02836 -0.02600
C 	C 	0.89502 0.83707 0.02907 -0.02900
C 	C 	0.91293 0.81951 0.94264 -0.03500
C 	C 	0.87414 0.74599 0.94200 -0.03200
C 	C 	0.80864 0.64280 0.98504 0.04900
C 	C 	0.92417 0.86543 0.98640 -0.00900
H 	H 	0.83452 0.74211 0.06167 0.04300
H 	H 	0.90357 0.87215 0.06305 0.04100
H 	H 	0.93501 0.84094 0.90944 0.04100
H 	H 	0.86634 0.71097 0.90828 0.04600
