data_crystal

_cell_length_a 40.90925
_cell_length_b 37.47162
_cell_length_c 19.46030
_cell_angle_alpha 92.63883
_cell_angle_beta  85.31483
_cell_angle_gamma 123.85417

_symmetry_space_group_name_	'P 1'
_symmetry_space_group_name_H-M	'P 1'

loop_
_symmetry_equiv_pos_as_xyz
  x,y,z

loop_
_atom_site_label
_atom_site_type_symbol
_atom_site_fract_x
_atom_site_fract_y
_atom_site_fract_z
_atom_site_charge
C 	C 	0.95119 0.96581 0.13880 -0.02300
C 	C 	0.94818 0.93961 0.19173 0.02200
C 	C 	0.01870 0.98857 0.20500 0.02100
C 	C 	0.02093 0.01522 0.15441 -0.02200
S 	S 	0.91450 0.96983 0.11900 -0.00900
C 	C 	0.91892 0.89478 0.19594 -0.06100
C 	C 	0.05215 0.00880 0.24457 -0.05600
S 	S 	0.06308 0.06306 0.15952 -0.00800
C 	C 	0.94206 0.02045 0.08968 0.00200
H 	H 	0.00514 0.07052 0.09215 0.04600
C 	C 	0.93018 0.87267 0.23360 0.00300
H 	H 	0.89400 0.87865 0.16401 0.04700
C 	C 	0.08056 0.05149 0.22417 0.00300
H 	H 	0.05432 0.99406 0.28904 0.04600
C 	C 	0.20531 0.11432 0.23490 0.01200
C 	C 	0.17983 0.07032 0.24958 -0.04000
C 	C 	0.13914 0.04988 0.24778 -0.03800
C 	C 	0.12327 0.07356 0.23340 0.01200
C 	C 	0.14866 0.11827 0.22440 -0.03800
C 	C 	0.18951 0.13850 0.22455 -0.04000
H 	H 	0.19169 0.05163 0.25994 0.03800
H 	H 	0.12016 0.01550 0.25571 0.03900
H 	H 	0.13682 0.13720 0.21576 0.04100
H 	H 	0.20888 0.17265 0.21432 0.04000
C 	C 	0.89658 0.09534 0.04466 0.01200
C 	C 	0.93171 0.10366 0.01046 -0.04200
C 	C 	0.94671 0.07956 0.02584 -0.04100
C 	C 	0.92676 0.04686 0.07563 0.01200
C 	C 	0.89185 0.03893 0.11057 -0.03700
C 	C 	0.87691 0.06311 0.09520 -0.03900
H 	H 	0.94706 0.12835 0.97120 0.04200
H 	H 	0.97346 0.08581 0.99814 0.04100
H 	H 	0.87671 0.01471 0.15053 0.04200
H 	H 	0.85020 0.05701 0.12292 0.03900
C 	C 	0.87704 0.73684 0.21391 0.01200
C 	C 	0.91809 0.76481 0.21535 -0.04100
C 	C 	0.93555 0.80907 0.22217 -0.03900
C 	C 	0.91197 0.82574 0.22876 0.01200
C 	C 	0.87074 0.79742 0.23033 -0.03900
C 	C 	0.85342 0.75327 0.22185 -0.04200
H 	H 	0.93655 0.75237 0.20935 0.04100
H 	H 	0.96738 0.83030 0.22093 0.04100
H 	H 	0.85213 0.80962 0.23769 0.03900
H 	H 	0.82163 0.73183 0.22133 0.03900
C 	C 	0.99861 0.05692 0.32306 0.02600
C 	C 	0.96342 0.01558 0.32634 -0.02000
C 	C 	0.95487 0.98758 0.38057 0.02400
C 	C 	0.98403 0.99893 0.42639 -0.02200
C 	C 	0.02056 0.03855 0.41999 0.02400
C 	C 	0.02613 0.06895 0.37258 -0.02300
C 	C 	0.99563 0.08702 0.28711 -0.05800
S 	S 	0.92972 0.01766 0.28807 -0.00600
C 	C 	0.92615 0.94265 0.37828 -0.05800
S 	S 	0.97553 0.95410 0.45971 -0.00900
C 	C 	0.05625 0.04716 0.44341 -0.06000
S 	S 	0.07444 0.10498 0.35950 -0.00800
C 	C 	0.95812 0.06909 0.26287 0.00200
H 	H 	0.01733 0.12136 0.28907 0.04700
C 	C 	0.93354 0.91961 0.42206 0.00200
H 	H 	0.90475 0.92745 0.33950 0.05000
C 	C 	0.08957 0.08471 0.41433 0.00200
H 	H 	0.05776 0.02568 0.47635 0.04700
C 	C 	0.20841 0.12016 0.42539 0.01200
C 	C 	0.17714 0.07667 0.42780 -0.04100
C 	C 	0.13849 0.06483 0.42169 -0.03800
C 	C 	0.13063 0.09650 0.41443 0.01200
C 	C 	0.16214 0.13985 0.40933 -0.03800
C 	C 	0.20082 0.15158 0.41441 -0.04100
H 	H 	0.18273 0.05208 0.43513 0.04000
H 	H 	0.11481 0.03109 0.42208 0.03800
H 	H 	0.15662 0.16456 0.40282 0.04000
H 	H 	0.22483 0.18518 0.41105 0.03900
C 	C 	0.91264 0.14450 0.22214 0.01100
C 	C 	0.94813 0.15368 0.18816 -0.04000
C 	C 	0.96281 0.12887 0.20121 -0.03800
C 	C 	0.94230 0.09491 0.24877 0.01100
C 	C 	0.90687 0.08593 0.28293 -0.03900
C 	C 	0.89206 0.11043 0.26937 -0.04100
H 	H 	0.96427 0.17993 0.15164 0.03800
H 	H 	0.89110 0.06046 0.32082 0.04200
H 	H 	0.86494 0.10346 0.29657 0.04100
C 	C 	0.87755 0.78307 0.41697 0.01300
C 	C 	0.85482 0.80067 0.42571 -0.04000
C 	C 	0.87317 0.84520 0.42564 -0.04000
C 	C 	0.91443 0.87267 0.41911 0.01200
C 	C 	0.93720 0.85516 0.41035 -0.03800
C 	C 	0.91882 0.81064 0.40736 -0.04000
H 	H 	0.82302 0.77990 0.43390 0.04000
H 	H 	0.85533 0.85838 0.43242 0.04000
H 	H 	0.93666 0.79756 0.39822 0.04000
Co	Co	0.69805 0.29339 0.96406 1.18300
O 	O 	0.74295 0.29619 0.89949 -0.38500
Co	Co	0.61963 0.29394 0.02392 1.18500
O 	O 	0.64685 0.27882 0.92571 -0.45700
O 	O 	0.66714 0.34890 0.05373 -0.41700
O 	O 	0.69416 0.23553 0.93369 -0.34800
C 	C 	0.70313 0.37019 0.02245 0.33700
O 	O 	0.62101 0.31530 0.92281 -0.35500
C 	C 	0.54730 0.25085 0.07288 0.28700
C 	C 	0.66954 0.27399 0.09600 0.32100
O 	O 	0.57507 0.28828 0.09306 -0.37500
O 	O 	0.56015 0.23749 0.02211 -0.34800
O 	O 	0.70507 0.28839 0.07053 -0.36200
O 	O 	0.64573 0.26370 0.04794 -0.46700
O 	O 	0.71301 0.35405 0.96873 -0.53100
C 	C 	0.72748 0.25528 0.89765 0.29100
C 	C 	0.64204 0.30334 0.88894 0.30600
H 	H 	0.73352 0.37430 0.93220 0.16800
Co	Co	0.70249 0.32987 0.46209 1.18300
O 	O 	0.74991 0.33747 0.39891 -0.38700
Co	Co	0.61364 0.31082 0.50664 1.18300
O 	O 	0.64852 0.29577 0.42335 -0.46300
O 	O 	0.65244 0.37389 0.51834 -0.42000
O 	O 	0.71288 0.27961 0.45542 -0.34900
C 	C 	0.68790 0.39816 0.48565 0.33700
O 	O 	0.60952 0.31365 0.39786 -0.35900
C 	C 	0.54175 0.25816 0.55527 0.28800
C 	C 	0.67682 0.32435 0.59495 0.30900
O 	O 	0.56331 0.29917 0.56506 -0.37500
O 	O 	0.56161 0.24639 0.51750 -0.34500
O 	O 	0.71297 0.34326 0.56906 -0.36400
O 	O 	0.65175 0.30062 0.54964 -0.45800
O 	O 	0.70283 0.38172 0.44190 -0.53500
C 	C 	0.74364 0.30081 0.41326 0.29300
C 	C 	0.63692 0.30787 0.37516 0.31700
H 	H 	0.72092 0.39964 0.40112 0.16800
C 	C 	0.66654 0.31645 0.66943 -0.09700
C 	C 	0.68691 0.30578 0.71009 0.09100
C 	C 	0.67749 0.30003 0.78145 -0.04000
C 	C 	0.64839 0.30536 0.81285 -0.09800
C 	C 	0.62653 0.31375 0.77145 0.09000
C 	C 	0.63613 0.31970 0.70009 -0.04100
H 	H 	0.69317 0.29181 0.81245 0.02900
H 	H 	0.61990 0.32701 0.66862 0.03400
N 	N 	0.71591 0.29875 0.67828 -0.13300
N 	N 	0.59389 0.31506 0.80159 -0.13200
C 	C 	0.75579 0.33392 0.69413 -0.09100
H 	H 	0.76162 0.36541 0.67955 0.06200
H 	H 	0.77754 0.32952 0.66397 0.05600
H 	H 	0.76014 0.33411 0.74985 0.05100
C 	C 	0.55642 0.27440 0.79029 -0.09100
H 	H 	0.55147 0.26876 0.73435 0.05200
H 	H 	0.53192 0.27555 0.81663 0.05600
H 	H 	0.55584 0.24720 0.81245 0.06400
H 	H 	0.71014 0.26940 0.69454 0.08300
H 	H 	0.59421 0.34063 0.78120 0.08200
C 	C 	0.64384 0.30122 0.30217 -0.10300
C 	C 	0.61442 0.26548 0.26658 0.09400
C 	C 	0.62313 0.25720 0.19878 -0.04100
C 	C 	0.66110 0.28399 0.16678 -0.11200
C 	C 	0.69043 0.32014 0.20253 0.09400
C 	C 	0.68139 0.32861 0.26979 -0.04000
H 	H 	0.60055 0.22940 0.17158 0.04400
H 	H 	0.70390 0.35629 0.29716 0.02900
N 	N 	0.57627 0.23626 0.30084 -0.13600
N 	N 	0.72908 0.34902 0.16968 -0.13700
C 	C 	0.54669 0.24229 0.27689 -0.09200
H 	H 	0.55638 0.27648 0.28200 0.06700
H 	H 	0.51867 0.22254 0.30900 0.05600
H 	H 	0.54094 0.23182 0.22238 0.05300
C 	C 	0.75804 0.34301 0.19671 -0.09300
H 	H 	0.76263 0.35333 0.25150 0.05400
H 	H 	0.78665 0.36284 0.16623 0.05300
H 	H 	0.74847 0.30884 0.19215 0.06700
H 	H 	0.56777 0.20444 0.29294 0.08200
H 	H 	0.73759 0.38089 0.17672 0.08100
C 	C 	0.82027 0.64678 0.43580 0.08500
C 	C 	0.85491 0.67491 0.46887 -0.07000
C 	C 	0.87360 0.71930 0.46278 -0.02300
C 	C 	0.85835 0.73596 0.42175 -0.00500
C 	C 	0.82403 0.70755 0.38727 -0.02300
C 	C 	0.80504 0.66316 0.39447 -0.06700
H 	H 	0.86690 0.66234 0.50043 0.05300
H 	H 	0.89958 0.74072 0.49073 0.03600
H 	H 	0.81195 0.71983 0.35536 0.03500
H 	H 	0.77867 0.64149 0.36762 0.05600
N 	N 	0.80112 0.60195 0.44343 -0.08800
N 	N 	0.76622 0.57960 0.46750 -0.08800
C 	C 	0.70771 0.44521 0.48813 -0.12300
C 	C 	0.68618 0.46346 0.48019 0.04400
C 	C 	0.70568 0.50800 0.47420 -0.09900
C 	C 	0.74677 0.53461 0.47577 0.10600
C 	C 	0.76817 0.51652 0.48694 -0.09500
C 	C 	0.74870 0.47199 0.49279 0.03600
H 	H 	0.65451 0.44310 0.47662 0.02800
H 	H 	0.68894 0.52179 0.46694 0.06200
H 	H 	0.79981 0.53688 0.49069 0.06300
H 	H 	0.76552 0.45826 0.49998 0.01800
C 	C 	0.86400 0.21965 0.21977 0.08500
C 	C 	0.90351 0.23925 0.23402 -0.06900
C 	C 	0.92047 0.21546 0.23015 -0.02300
C 	C 	0.89802 0.17190 0.21144 -0.00500
C 	C 	0.85962 0.15340 0.19090 -0.02200
C 	C 	0.84278 0.17728 0.19438 -0.06400
H 	H 	0.92036 0.27220 0.25191 0.05300
H 	H 	0.95033 0.23024 0.24515 0.03600
H 	H 	0.84242 0.12015 0.17444 0.03700
H 	H 	0.81284 0.16243 0.17982 0.05900
N 	N 	0.84486 0.24113 0.23779 -0.08600
N 	N 	0.80874 0.22034 0.25433 -0.08800
C 	C 	0.75914 0.27990 0.36834 -0.09800
C 	C 	0.79336 0.30474 0.32468 0.02700
C 	C 	0.80919 0.28510 0.28484 -0.09000
C 	C 	0.79118 0.24042 0.28908 0.10300
C 	C 	0.75625 0.21554 0.33052 -0.09200
C 	C 	0.74039 0.23510 0.37030 0.03100
H 	H 	0.80800 0.33929 0.32230 0.03000
H 	H 	0.83561 0.30461 0.25150 0.06200
H 	H 	0.74194 0.18107 0.33330 0.06200
H 	H 	0.71374 0.21544 0.40309 0.03900
C 	C 	0.41789 0.19800 0.54003 0.10300
C 	C 	0.43752 0.22903 0.59092 -0.09200
C 	C 	0.47765 0.24737 0.59804 0.03000
C 	C 	0.49843 0.23455 0.55448 -0.09500
C 	C 	0.47814 0.20159 0.50611 0.02900
C 	C 	0.43807 0.18340 0.49895 -0.08900
H 	H 	0.42188 0.23967 0.62387 0.06000
H 	H 	0.49274 0.27213 0.63646 0.03100
H 	H 	0.49360 0.19090 0.47275 0.03800
H 	H 	0.42284 0.15837 0.46102 0.06400
N 	N 	0.37780 0.18146 0.53080 -0.08900
N 	N 	0.36494 0.17172 0.47217 -0.08500
C 	C 	0.24874 0.13301 0.43818 -0.00500
C 	C 	0.26727 0.11654 0.39707 -0.02200
C 	C 	0.30570 0.12939 0.40862 -0.06800
C 	C 	0.32556 0.15795 0.46229 0.08500
C 	C 	0.30705 0.17451 0.50338 -0.06500
C 	C 	0.26877 0.16189 0.49161 -0.02400
H 	H 	0.25214 0.09432 0.35557 0.03700
H 	H 	0.32006 0.11718 0.37586 0.05500
H 	H 	0.32245 0.19741 0.54394 0.05600
H 	H 	0.25467 0.17459 0.52395 0.03700
C 	C 	0.82393 0.60285 0.17286 0.08500
C 	C 	0.82393 0.62926 0.12399 -0.06600
C 	C 	0.84136 0.67300 0.13740 -0.02400
C 	C 	0.85899 0.69074 0.19972 -0.00500
C 	C 	0.85944 0.66446 0.24823 -0.02300
C 	C 	0.84135 0.62049 0.23529 -0.06700
H 	H 	0.80981 0.61568 0.07624 0.05500
H 	H 	0.84105 0.69309 0.09950 0.03700
H 	H 	0.87343 0.67800 0.29612 0.04000
H 	H 	0.84083 0.60015 0.27373 0.05700
N 	N 	0.80335 0.55795 0.16188 -0.08600
N 	N 	0.80970 0.54343 0.10719 -0.09000
C 	C 	0.73106 0.41540 0.04290 -0.12300
C 	C 	0.77164 0.43277 0.04258 0.03500
C 	C 	0.79762 0.47505 0.06478 -0.09900
C 	C 	0.78316 0.49991 0.08871 0.10600
C 	C 	0.74266 0.48261 0.08897 -0.09800
C 	C 	0.71676 0.44062 0.06622 0.04200
H 	H 	0.78298 0.41341 0.02605 0.01700
H 	H 	0.82891 0.48840 0.06374 0.06000
H 	H 	0.73139 0.50197 0.10585 0.06400
H 	H 	0.68559 0.42778 0.06629 0.03000
C 	C 	0.84859 0.16561 0.98806 0.08700
C 	C 	0.88660 0.18749 0.01155 -0.07000
C 	C 	0.90239 0.16465 0.02977 -0.02200
C 	C 	0.87984 0.11956 0.02616 -0.00500
C 	C 	0.84140 0.09760 0.00403 -0.02600
C 	C 	0.82578 0.12049 0.98536 -0.06400
H 	H 	0.90397 0.22221 0.01537 0.05400
H 	H 	0.93195 0.18193 0.04732 0.03500
H 	H 	0.82374 0.06284 0.00097 0.03700
H 	H 	0.79595 0.10323 0.96907 0.05700
N 	N 	0.83271 0.18901 0.97037 -0.08500
N 	N 	0.81220 0.17813 0.91977 -0.08800
C 	C 	0.75192 0.23752 0.89037 -0.09700
C 	C 	0.73418 0.19362 0.87613 0.03200
C 	C 	0.75480 0.17442 0.88356 -0.09200
C 	C 	0.79310 0.19878 0.90591 0.10400
C 	C 	0.81195 0.24330 0.91543 -0.08900
C 	C 	0.79145 0.26262 0.90760 0.03000
H 	H 	0.70392 0.17406 0.86176 0.03300
H 	H 	0.74048 0.14027 0.87443 0.06100
H 	H 	0.84208 0.26269 0.93036 0.06300
H 	H 	0.80573 0.29666 0.91788 0.03200
C 	C 	0.42472 0.20032 0.11783 0.10200
C 	C 	0.43633 0.18066 0.06796 -0.09300
C 	C 	0.47627 0.19687 0.05360 0.02900
C 	C 	0.50509 0.23339 0.08850 -0.09700
C 	C 	0.49344 0.25306 0.13876 0.02600
C 	C 	0.45347 0.23676 0.15311 -0.08900
H 	H 	0.41431 0.15279 0.04020 0.06000
H 	H 	0.48476 0.18117 0.01507 0.03700
H 	H 	0.51532 0.28103 0.16655 0.03400
H 	H 	0.44489 0.25269 0.19095 0.06400
N 	N 	0.38421 0.18465 0.12922 -0.08900
N 	N 	0.37033 0.18779 0.18694 -0.08600
C 	C 	0.24811 0.13370 0.22229 -0.00500
C 	C 	0.27540 0.17079 0.25810 -0.02300
C 	C 	0.31585 0.18833 0.24685 -0.06800
C 	C 	0.32929 0.16949 0.19881 0.08500
C 	C 	0.30194 0.13214 0.16352 -0.06600
C 	C 	0.26165 0.11467 0.17466 -0.02400
H 	H 	0.26530 0.18561 0.29528 0.03600
H 	H 	0.33673 0.21665 0.27516 0.05500
H 	H 	0.31192 0.11668 0.12752 0.05600
H 	H 	0.24089 0.08627 0.14630 0.03700
C 	C 	0.98686 0.00575 0.12460 0.02500
C 	C 	0.98204 0.95207 0.22620 -0.01900
C 	C 	0.98179 0.03677 0.09748 -0.05800
S 	S 	0.97589 0.90817 0.25765 -0.01000
H 	H 	0.98990 0.13578 0.17394 0.04000
H 	H 	0.96908 0.87598 0.40459 0.04100
