data_crystal

_cell_length_a 25.96111
_cell_length_b 26.45552
_cell_length_c 26.37146
_cell_angle_alpha 95.50665
_cell_angle_beta  95.50666
_cell_angle_gamma 125.84816

_symmetry_space_group_name_	'P 1'
_symmetry_space_group_name_H-M	'P 1'

loop_
_symmetry_equiv_pos_as_xyz
  x,y,z

loop_
_atom_site_label
_atom_site_type_symbol
_atom_site_fract_x
_atom_site_fract_y
_atom_site_fract_z
_atom_site_charge
N 	N 	0.02623 0.05987 0.00426 -0.14000
C 	C 	0.06208 0.03797 0.00083 0.12800
N 	N 	0.03447 0.97573 0.00078 -0.13700
N 	N 	0.00270 0.95098 0.45177 -0.13800
C 	C 	0.03419 0.01380 0.45167 0.12300
N 	N 	0.00090 0.03853 0.45011 -0.13900
H 	H 	0.04396 0.98793 0.35897 0.09400
H 	H 	0.01058 0.92815 0.09517 0.09500
N 	N 	0.00287 0.13691 0.07577 -0.19400
H 	H 	0.02548 0.11697 0.08818 0.09200
H 	H 	0.02185 0.18275 0.09432 0.08500
C 	C 	0.96382 0.02026 0.01080 0.11200
C 	C 	0.97181 0.93584 0.00594 0.11800
N 	N 	0.93683 0.95825 0.01153 -0.14000
C 	C 	0.93617 0.00062 0.44898 0.11400
N 	N 	0.90490 0.93805 0.45049 -0.14100
C 	C 	0.93794 0.91286 0.45067 0.11800
Cu	Cu	0.62989 0.23159 0.99781 0.92500
Cu	Cu	0.68394 0.23879 0.88965 0.86400
Cu	Cu	0.67444 0.33709 0.93573 0.89300
Cu	Cu	0.65609 0.36127 0.04247 0.89400
C 	C 	0.65809 0.27691 0.10724 0.29400
O 	O 	0.54113 0.21045 0.99976 -0.36500
C 	C 	0.66128 0.30643 0.82330 0.28700
O 	O 	0.69499 0.33121 0.00606 -0.63600
O 	O 	0.62411 0.24309 0.92515 -0.64300
O 	O 	0.65523 0.17367 0.98882 -0.37600
O 	O 	0.73503 0.24030 0.94699 -0.44300
O 	O 	0.63533 0.30898 0.09746 -0.38500
O 	O 	0.72926 0.42890 0.94731 -0.39400
C 	C 	0.72945 0.46650 0.98422 0.29900
C 	C 	0.52538 0.24605 0.98317 0.29300
O 	O 	0.57105 0.30557 0.98114 -0.40500
O 	O 	0.71235 0.44923 0.02874 -0.39300
O 	O 	0.65093 0.23478 0.07035 -0.36100
C 	C 	0.70859 0.19258 0.97169 0.30100
O 	O 	0.65667 0.33829 0.86214 -0.38200
O 	O 	0.65396 0.25336 0.82749 -0.42300
H 	H 	0.74159 0.35301 0.01926 0.16300
H 	H 	0.58002 0.21990 0.90434 0.17100
Cu	Cu	0.74201 0.34311 0.43344 0.92700
Cu	Cu	0.74712 0.30441 0.54692 0.86500
Cu	Cu	0.64361 0.31294 0.50231 0.89500
Cu	Cu	0.60976 0.31936 0.39295 0.89300
C 	C 	0.68725 0.30604 0.32453 0.29400
O 	O 	0.76768 0.43049 0.42646 -0.36800
C 	C 	0.68441 0.33340 0.61429 0.28500
O 	O 	0.64149 0.28376 0.43179 -0.64000
O 	O 	0.73841 0.35811 0.50717 -0.64200
O 	O 	0.79727 0.31420 0.44203 -0.37800
O 	O 	0.73469 0.24419 0.49196 -0.44600
O 	O 	0.65570 0.32976 0.33398 -0.39100
O 	O 	0.55075 0.26300 0.49644 -0.39400
C 	C 	0.51048 0.26123 0.46036 0.30400
C 	C 	0.73321 0.44979 0.43953 0.29200
O 	O 	0.67407 0.40866 0.44724 -0.40400
O 	O 	0.52339 0.27171 0.41354 -0.39700
O 	O 	0.73126 0.31412 0.36102 -0.36500
C 	C 	0.77574 0.26205 0.46018 0.30100
O 	O 	0.65001 0.33713 0.57658 -0.38100
O 	O 	0.73869 0.34200 0.60818 -0.42200
H 	H 	0.61743 0.23722 0.42186 0.16000
H 	H 	0.76469 0.40325 0.52444 0.17300
C 	C 	0.60821 0.27600 0.73126 -0.04200
C 	C 	0.65989 0.32210 0.77128 -0.09400
C 	C 	0.71418 0.37805 0.75936 0.09800
C 	C 	0.71836 0.38359 0.70721 -0.04200
C 	C 	0.67011 0.33393 0.66704 -0.09400
C 	C 	0.61299 0.28082 0.67909 0.09700
N 	N 	0.56356 0.23343 0.64102 -0.20100
H 	H 	0.56556 0.23436 0.74062 0.04400
H 	H 	0.76092 0.42535 0.69788 0.04500
N 	N 	0.76314 0.42574 0.79752 -0.20100
H 	H 	0.52202 0.19421 0.65048 0.08000
H 	H 	0.56544 0.23494 0.60184 0.08600
H 	H 	0.76138 0.42371 0.83667 0.08700
H 	H 	0.80353 0.46624 0.78819 0.07900
C 	C 	0.73921 0.33289 0.24765 -0.03900
C 	C 	0.68774 0.28838 0.27011 -0.09200
C 	C 	0.63221 0.23268 0.23822 0.10000
C 	C 	0.62565 0.22654 0.18405 -0.03900
C 	C 	0.67401 0.27479 0.16162 -0.09100
C 	C 	0.73297 0.32639 0.19349 0.09900
N 	N 	0.78334 0.37009 0.17235 -0.20000
H 	H 	0.78283 0.37445 0.27229 0.04800
H 	H 	0.58146 0.18568 0.15941 0.05100
N 	N 	0.58499 0.18532 0.25935 -0.20000
H 	H 	0.82603 0.40930 0.19612 0.08000
H 	H 	0.78139 0.36445 0.13230 0.07400
H 	H 	0.59046 0.18690 0.29937 0.07400
H 	H 	0.54306 0.14517 0.23560 0.08100
C 	C 	0.90419 0.84463 0.45128 -0.04800
C 	C 	0.84802 0.79718 0.41405 0.09700
C 	C 	0.81643 0.73302 0.41725 -0.08500
C 	C 	0.84351 0.71511 0.45322 -0.01000
C 	C 	0.90126 0.76243 0.48897 0.07000
C 	C 	0.92978 0.82673 0.48866 -0.05600
N 	N 	0.82623 0.81251 0.37372 -0.19800
H 	H 	0.77255 0.69665 0.38963 0.05200
C 	C 	0.81392 0.64673 0.44994 0.00400
N 	N 	0.92984 0.74657 0.52327 -0.19500
H 	H 	0.97290 0.86304 0.51700 0.04800
C 	C 	0.82110 0.61535 0.40850 -0.10200
C 	C 	0.79080 0.54992 0.40221 0.12800
C 	C 	0.75900 0.51684 0.44145 -0.11600
C 	C 	0.75175 0.54818 0.48297 -0.02500
C 	C 	0.77714 0.61240 0.48672 0.05500
H 	H 	0.84796 0.64141 0.37972 0.05600
N 	N 	0.78924 0.51869 0.35728 -0.20400
H 	H 	0.72605 0.52249 0.51235 0.03900
N 	N 	0.76608 0.64067 0.52558 -0.19200
H 	H 	0.81671 0.54405 0.33032 0.08300
H 	H 	0.75690 0.46933 0.34668 0.09900
H 	H 	0.74003 0.61527 0.55312 0.08100
H 	H 	0.78196 0.68750 0.52829 0.08600
H 	H 	0.97193 0.78190 0.54995 0.08000
H 	H 	0.91143 0.69939 0.52337 0.08600
H 	H 	0.85429 0.85785 0.36477 0.08900
H 	H 	0.78258 0.77759 0.34844 0.08200
C 	C 	0.89960 0.02667 0.44306 -0.04900
C 	C 	0.89002 0.04367 0.39569 0.09600
C 	C 	0.86718 0.08032 0.39417 -0.08500
C 	C 	0.85236 0.09880 0.43871 -0.01000
C 	C 	0.85675 0.07720 0.48491 0.07000
C 	C 	0.88086 0.04164 0.48668 -0.05600
N 	N 	0.90228 0.02465 0.35162 -0.20100
H 	H 	0.86187 0.09533 0.35842 0.05200
C 	C 	0.83521 0.14312 0.43718 0.00500
N 	N 	0.83846 0.09084 0.52766 -0.19400
H 	H 	0.88687 0.02723 0.52258 0.04500
C 	C 	0.77097 0.11872 0.41833 -0.10300
C 	C 	0.75171 0.15848 0.42099 0.12900
C 	C 	0.79715 0.22319 0.44479 -0.12000
C 	C 	0.86232 0.24851 0.46011 -0.02300
C 	C 	0.88202 0.20912 0.45621 0.05400
H 	H 	0.73574 0.06855 0.40201 0.05500
N 	N 	0.69003 0.13464 0.39986 -0.20400
H 	H 	0.89741 0.29855 0.47695 0.03200
N 	N 	0.94559 0.23477 0.47120 -0.19200
H 	H 	0.65609 0.08632 0.38404 0.08000
H 	H 	0.67598 0.16420 0.39687 0.08500
H 	H 	0.97950 0.28329 0.48632 0.07800
H 	H 	0.96224 0.20729 0.46701 0.08600
H 	H 	0.84329 0.07593 0.56193 0.07800
H 	H 	0.81806 0.11507 0.52708 0.08200
H 	H 	0.91499 0.99377 0.35063 0.08900
H 	H 	0.89701 0.03906 0.31717 0.08100
C 	C 	0.10454 0.05525 0.45431 -0.05000
C 	C 	0.13205 0.05080 0.41187 0.09800
C 	C 	0.19959 0.08732 0.41744 -0.08400
C 	C 	0.23985 0.12900 0.46409 -0.01000
C 	C 	0.21235 0.13516 0.50590 0.07000
C 	C 	0.14478 0.09810 0.50051 -0.05400
N 	N 	0.09407 0.01250 0.36554 -0.20100
H 	H 	0.22094 0.08343 0.38531 0.05200
C 	C 	0.31072 0.16547 0.46871 0.00500
N 	N 	0.25038 0.17593 0.55136 -0.19500
H 	H 	0.12343 0.10183 0.53272 0.04800
C 	C 	0.34576 0.22550 0.45492 -0.10000
C 	C 	0.41243 0.25985 0.45575 0.12600
C 	C 	0.44374 0.23202 0.46809 -0.11300
C 	C 	0.40922 0.17310 0.48396 -0.02000
C 	C 	0.34297 0.13961 0.48469 0.05400
H 	H 	0.32111 0.24573 0.44387 0.05600
N 	N 	0.44632 0.31995 0.44601 -0.20400
H 	H 	0.43357 0.15241 0.49441 0.03800
N 	N 	0.31065 0.08271 0.50051 -0.19100
H 	H 	0.42241 0.33918 0.43496 0.08200
H 	H 	0.49677 0.34913 0.45162 0.08400
H 	H 	0.33473 0.06366 0.51155 0.07900
H 	H 	0.26175 0.05728 0.50278 0.08600
H 	H 	0.22955 0.17990 0.58204 0.08200
H 	H 	0.30078 0.20406 0.55678 0.08700
H 	H 	0.11483 0.00838 0.33485 0.08200
C 	C 	0.94009 0.86745 0.00054 -0.04000
C 	C 	0.94689 0.84123 0.04272 0.09300
C 	C 	0.91325 0.77523 0.03658 -0.07500
C 	C 	0.87350 0.73534 0.98916 -0.02000
C 	C 	0.86796 0.76177 0.94664 0.07500
C 	C 	0.90105 0.82766 0.95295 -0.06400
N 	N 	0.98504 0.87893 0.08919 -0.20200
H 	H 	0.91760 0.75475 0.06894 0.05100
C 	C 	0.83598 0.66583 0.98515 0.01000
N 	N 	0.83129 0.72429 0.89973 -0.19600
H 	H 	0.89635 0.84808 0.92067 0.04800
C 	C 	0.77247 0.63129 0.99423 -0.10900
C 	C 	0.73527 0.56527 0.99081 0.12800
C 	C 	0.76350 0.53389 0.98071 -0.11400
C 	C 	0.82662 0.56827 0.97057 -0.01900
C 	C 	0.86313 0.63401 0.97239 0.05100
H 	H 	0.75153 0.65575 0.00309 0.06200
N 	N 	0.67214 0.53218 0.99577 -0.20700
H 	H 	0.84789 0.54402 0.96224 0.03700
N 	N 	0.92398 0.66615 0.96186 -0.19100
H 	H 	0.65243 0.55600 0.00513 0.08600
H 	H 	0.64134 0.48261 0.98815 0.08300
H 	H 	0.94373 0.64225 0.95288 0.07700
H 	H 	0.95205 0.71482 0.96192 0.08400
H 	H 	0.82688 0.74422 0.86878 0.08100
H 	H 	0.80762 0.67533 0.89320 0.08700
H 	H 	0.98958 0.85902 0.12011 0.08100
C 	C 	0.92309 0.04248 0.01153 -0.04000
C 	C 	0.94653 0.10235 0.04049 0.09000
C 	C 	0.90911 0.12465 0.03464 -0.08600
C 	C 	0.84595 0.08533 0.00546 0.00200
C 	C 	0.82010 0.02300 0.98096 0.06200
C 	C 	0.85979 0.00319 0.98247 -0.06600
H 	H 	0.92838 0.17195 0.05423 0.05200
C 	C 	0.80916 0.11148 0.99733 -0.01000
N 	N 	0.75716 0.98184 0.95644 -0.19200
H 	H 	0.84115 0.95679 0.96117 0.05300
C 	C 	0.79998 0.12452 0.94839 -0.09400
C 	C 	0.76116 0.14441 0.93782 0.11700
C 	C 	0.73780 0.15916 0.97875 -0.12000
C 	C 	0.74705 0.14634 0.02784 -0.01800
C 	C 	0.78112 0.12100 0.03722 0.06300
H 	H 	0.82034 0.11594 0.91764 0.05200
N 	N 	0.74380 0.14611 0.88803 -0.20000
H 	H 	0.72816 0.15653 0.05896 0.04800
N 	N 	0.78608 0.10539 0.08420 -0.19300
H 	H 	0.76441 0.13904 0.85861 0.07200
H 	H 	0.70633 0.14957 0.87743 0.04300
H 	H 	0.76639 0.11386 0.11368 0.08300
H 	H 	0.80792 0.08332 0.09160 0.08600
H 	H 	0.73915 0.93673 0.93677 0.08100
H 	H 	0.72489 0.99306 0.95842 0.08700
C 	C 	0.13137 0.08189 0.99903 -0.06100
C 	C 	0.17889 0.09440 0.04014 0.10400
C 	C 	0.24304 0.12545 0.03307 -0.08000
C 	C 	0.26092 0.14640 0.98657 -0.01300
C 	C 	0.21433 0.13805 0.94689 0.06900
C 	C 	0.14975 0.10543 0.95346 -0.05100
N 	N 	0.16340 0.07742 0.08657 -0.20000
H 	H 	0.27921 0.13337 0.06389 0.05300
C 	C 	0.32816 0.17519 0.97941 0.00000
N 	N 	0.23120 0.16118 0.90261 -0.19500
H 	H 	0.11341 0.09682 0.92242 0.04600
C 	C 	0.34186 0.13677 0.95341 -0.09900
C 	C 	0.40591 0.16077 0.95030 0.12600
C 	C 	0.45731 0.22316 0.97653 -0.11800
C 	C 	0.44330 0.26248 0.00039 -0.01600
C 	C 	0.37910 0.23934 0.00149 0.05900
H 	H 	0.30253 0.08812 0.93531 0.05600
N 	N 	0.41748 0.12460 0.92079 -0.20200
H 	H 	0.48255 0.31080 0.01936 0.03400
N 	N 	0.36676 0.27887 0.02376 -0.19200
H 	H 	0.37960 0.07759 0.90364 0.08000
H 	H 	0.46321 0.14374 0.91210 0.07900
H 	H 	0.40479 0.32576 0.04110 0.08000
H 	H 	0.31951 0.26411 0.02293 0.08800
H 	H 	0.19625 0.15381 0.87317 0.08100
H 	H 	0.27914 0.18770 0.89733 0.08600
H 	H 	0.11749 0.05908 0.09453 0.08700
H 	H 	0.19826 0.08476 0.11609 0.08200
