data_crystal

_cell_length_a 30.15317
_cell_length_b 30.35762
_cell_length_c 26.37224
_cell_angle_alpha 95.48642
_cell_angle_beta  95.48274
_cell_angle_gamma 125.57504

_symmetry_space_group_name_	'P 1'
_symmetry_space_group_name_H-M	'P 1'

loop_
_symmetry_equiv_pos_as_xyz
  x,y,z

loop_
_atom_site_label
_atom_site_type_symbol
_atom_site_fract_x
_atom_site_fract_y
_atom_site_fract_z
_atom_site_charge
C 	C 	0.97388 0.03419 0.01918 0.04000
C 	C 	0.05202 0.03125 0.01168 0.03900
C 	C 	0.03842 0.01020 0.45030 0.03500
C 	C 	0.00940 0.03309 0.44649 -0.07400
C 	C 	0.92134 0.02432 0.44022 -0.00500
C 	C 	0.09903 0.04526 0.45378 -0.00700
C 	C 	0.13378 0.05440 0.49919 -0.02700
H 	H 	0.11633 0.03754 0.53255 0.04000
H 	H 	0.97382 0.09921 0.95539 0.03800
H 	H 	0.12868 0.04027 0.08348 0.03900
C 	C 	0.88903 0.01919 0.47739 -0.02800
H 	H 	0.95247 0.06021 0.37327 0.03700
C 	C 	0.92782 0.05614 0.40230 -0.03000
C 	C 	0.19100 0.08449 0.50132 -0.05100
H 	H 	0.21740 0.09063 0.53630 0.04800
C 	C 	0.03059 0.06154 0.01802 -0.08100
C 	C 	0.86444 0.04651 0.47735 -0.05100
H 	H 	0.84029 0.04291 0.50674 0.04400
C 	C 	0.12201 0.06728 0.41081 -0.02800
H 	H 	0.09540 0.06006 0.37547 0.03800
C 	C 	0.95072 0.06556 0.02500 -0.01900
C 	C 	0.95206 0.09547 0.98699 -0.01700
C 	C 	0.11150 0.05952 0.01069 -0.01600
C 	C 	0.14496 0.05765 0.04991 -0.03100
H 	H 	0.22355 0.07295 0.07469 0.04100
C 	C 	0.92207 0.06080 0.06558 -0.02700
H 	H 	0.92112 0.03816 0.09534 0.03700
C 	C 	0.19864 0.07601 0.04485 -0.04200
H 	H 	0.03180 0.07687 0.44666 0.05200
C 	C 	0.87199 0.07942 0.44030 0.02900
C 	C 	0.17922 0.09725 0.41286 -0.05100
C 	C 	0.89273 0.08332 0.06667 -0.05100
H 	H 	0.81228 0.09909 0.02749 0.04400
C 	C 	0.13308 0.08220 0.96744 -0.02200
H 	H 	0.10746 0.08354 0.93682 0.04000
H 	H 	0.28285 0.08135 0.00013 0.03100
C 	C 	0.90401 0.08424 0.40279 -0.05000
H 	H 	0.86928 0.07785 0.09721 0.04400
C 	C 	0.21966 0.09705 0.00087 -0.00100
C 	C 	0.18686 0.10068 0.96240 -0.03200
H 	H 	0.74631 0.09644 0.45627 0.05200
H 	H 	0.82626 0.10170 0.36366 0.04800
C 	C 	0.95159 0.99969 0.44323 0.03100
H 	H 	0.05787 0.10607 0.02228 0.05100
H 	H 	0.88411 0.99515 0.50709 0.03800
C 	C 	0.21403 0.10610 0.45825 0.03200
C 	C 	0.89258 0.11169 0.02779 0.02000
C 	C 	0.92303 0.11833 0.98829 -0.04100
H 	H 	0.92258 0.13946 0.95761 0.04500
C 	C 	0.01667 0.97369 0.00632 -0.08200
C 	C 	0.96015 0.94632 0.00742 0.04000
C 	C 	0.93880 0.97655 0.01372 -0.08400
H 	H 	0.03317 0.95026 0.00141 0.05300
H 	H 	0.89490 0.95525 0.01395 0.05300
C 	C 	0.92301 0.94325 0.44445 -0.07600
C 	C 	0.95216 0.92039 0.44888 0.03300
C 	C 	0.00975 0.95389 0.45111 -0.07600
H 	H 	0.87843 0.91738 0.44233 0.05100
H 	H 	0.03223 0.93614 0.45349 0.05400
Cu	Cu	0.64292 0.25271 0.99082 0.93400
Cu	Cu	0.67979 0.24895 0.87853 0.88000
Cu	Cu	0.66815 0.33550 0.91952 0.90300
Cu	Cu	0.64228 0.35500 0.02265 0.89800
C 	C 	0.66647 0.30139 0.09773 0.38800
O 	O 	0.56216 0.21937 0.99351 -0.34000
C 	C 	0.64805 0.29389 0.80668 0.38700
O 	O 	0.68552 0.33776 0.99190 -0.62600
O 	O 	0.63106 0.25481 0.91617 -0.63800
O 	O 	0.67992 0.21544 0.98790 -0.35100
O 	O 	0.73591 0.26969 0.93513 -0.42700
O 	O 	0.63830 0.32064 0.08448 -0.37300
O 	O 	0.70908 0.41467 0.92765 -0.35800
C 	C 	0.70772 0.44610 0.96482 0.28900
C 	C 	0.53851 0.24121 0.97489 0.28200
O 	O 	0.56947 0.29150 0.96553 -0.38200
O 	O 	0.67083 0.42445 0.99556 -0.37300
O 	O 	0.66550 0.26532 0.06437 -0.34400
C 	C 	0.72553 0.23703 0.96860 0.28500
O 	O 	0.66195 0.33449 0.84408 -0.35900
O 	O 	0.64143 0.24902 0.81701 -0.39700
H 	H 	0.72568 0.36247 0.00691 0.17100
H 	H 	0.59185 0.23124 0.89806 0.18700
Cu	Cu	0.73145 0.33181 0.42340 0.93300
Cu	Cu	0.71422 0.27236 0.52468 0.88000
Cu	Cu	0.63696 0.29596 0.48268 0.90300
Cu	Cu	0.63491 0.34098 0.38731 0.90100
C 	C 	0.70115 0.33129 0.31696 0.39400
O 	O 	0.76799 0.41412 0.43409 -0.34700
C 	C 	0.66427 0.30014 0.59481 0.39200
O 	O 	0.64495 0.29053 0.41170 -0.63800
O 	O 	0.71803 0.33001 0.49532 -0.64000
O 	O 	0.76674 0.29288 0.42360 -0.35900
O 	O 	0.70099 0.22675 0.46229 -0.42800
O 	O 	0.68169 0.35837 0.33304 -0.36800
O 	O 	0.55810 0.25943 0.46545 -0.36700
C 	C 	0.53388 0.27546 0.43611 0.29300
C 	C 	0.74420 0.43491 0.45451 0.28700
O 	O 	0.69091 0.40240 0.45557 -0.38800
O 	O 	0.55817 0.30647 0.40127 -0.38400
O 	O 	0.72984 0.32274 0.35017 -0.34500
C 	C 	0.74053 0.24334 0.43516 0.29500
O 	O 	0.62633 0.28748 0.55475 -0.36600
O 	O 	0.70778 0.30135 0.58858 -0.40000
H 	H 	0.62061 0.25260 0.39110 0.18700
H 	H 	0.74084 0.36619 0.51913 0.18800
C 	C 	0.60190 0.25806 0.71377 0.26900
C 	C 	0.64550 0.30134 0.75246 -0.20700
C 	C 	0.69066 0.34847 0.73822 0.26600
C 	C 	0.69473 0.34991 0.68595 0.27000
C 	C 	0.65352 0.30450 0.64753 -0.20900
C 	C 	0.60581 0.25971 0.66145 0.26800
F 	F 	0.56489 0.21622 0.62450 -0.40300
F 	F 	0.55675 0.21347 0.72698 -0.40200
F 	F 	0.73996 0.39441 0.67272 -0.40600
F 	F 	0.73241 0.39129 0.77519 -0.40400
C 	C 	0.72992 0.36960 0.23725 0.27400
C 	C 	0.70342 0.32373 0.26174 -0.20600
C 	C 	0.67248 0.27041 0.23190 0.26600
C 	C 	0.66374 0.26288 0.17770 0.27300
C 	C 	0.68622 0.30878 0.15316 -0.20500
C 	C 	0.72134 0.36214 0.18316 0.26500
F 	F 	0.74518 0.40678 0.15979 -0.41700
F 	F 	0.76213 0.42142 0.26591 -0.39900
F 	F 	0.63052 0.21101 0.14914 -0.39600
F 	F 	0.64801 0.22582 0.25534 -0.40800
C 	C 	0.77506 0.49526 0.46900 -0.08200
C 	C 	0.75513 0.51723 0.50106 0.02000
C 	C 	0.77891 0.57349 0.50823 -0.07000
C 	C 	0.82268 0.60833 0.48338 0.05000
C 	C 	0.84521 0.58717 0.45429 -0.06800
C 	C 	0.82132 0.53087 0.44689 0.02300
C 	C 	0.84494 0.66702 0.48826 -0.05200
C 	C 	0.85438 0.69121 0.44638 -0.04400
C 	C 	0.87517 0.74951 0.45047 0.03100
C 	C 	0.91738 0.79018 0.49172 -0.05100
C 	C 	0.94030 0.84569 0.49255 -0.02800
C 	C 	0.92261 0.86138 0.45143 -0.00700
C 	C 	0.87991 0.82077 0.41065 -0.02800
C 	C 	0.85631 0.76512 0.41020 -0.05100
H 	H 	0.72044 0.49054 0.51950 0.04100
H 	H 	0.76231 0.58972 0.53200 0.05400
H 	H 	0.88065 0.61416 0.43681 0.05800
H 	H 	0.83774 0.51477 0.42270 0.05600
H 	H 	0.84967 0.68934 0.52559 0.04700
H 	H 	0.84411 0.66701 0.40822 0.04800
H 	H 	0.93358 0.77904 0.52230 0.04600
H 	H 	0.97305 0.87670 0.52436 0.03900
H 	H 	0.86610 0.83241 0.37859 0.03900
H 	H 	0.82410 0.73420 0.37803 0.04600
C 	C 	0.75972 0.20899 0.42326 -0.08900
C 	C 	0.79900 0.22381 0.39093 0.02600
C 	C 	0.82002 0.19345 0.38311 -0.07200
C 	C 	0.80234 0.14842 0.40783 0.05100
C 	C 	0.76134 0.13211 0.43819 -0.07400
C 	C 	0.74022 0.16220 0.44595 0.01900
C 	C 	0.82713 0.11861 0.40227 -0.05500
C 	C 	0.85078 0.11279 0.44445 -0.04400
H 	H 	0.81365 0.25902 0.37226 0.05100
H 	H 	0.85088 0.20566 0.35878 0.05500
H 	H 	0.70938 0.14963 0.47035 0.03000
H 	H 	0.85130 0.12997 0.48284 0.04200
H 	H 	0.91174 0.11088 0.37498 0.04400
C 	C 	0.27383 0.13367 0.45942 -0.04400
C 	C 	0.30517 0.18155 0.44267 -0.05300
C 	C 	0.36431 0.20744 0.44176 0.04900
C 	C 	0.38481 0.22307 0.39615 -0.07200
C 	C 	0.44023 0.24565 0.39432 0.02000
C 	C 	0.47586 0.25337 0.43838 -0.08000
C 	C 	0.45569 0.23937 0.48457 0.02100
C 	C 	0.40027 0.21677 0.48631 -0.06700
H 	H 	0.19630 0.11242 0.37884 0.04400
H 	H 	0.29278 0.11542 0.47562 0.04900
H 	H 	0.28637 0.19998 0.42663 0.04600
H 	H 	0.35753 0.21673 0.36181 0.05100
H 	H 	0.45517 0.25629 0.35844 0.03800
H 	H 	0.48298 0.24618 0.51915 0.05900
H 	H 	0.38526 0.20642 0.52223 0.06000
C 	C 	0.92334 0.88589 0.00227 -0.02600
C 	C 	0.89959 0.86198 0.04428 -0.01800
C 	C 	0.86624 0.80470 0.04002 -0.06900
C 	C 	0.85679 0.77091 0.99392 0.04500
C 	C 	0.87933 0.79481 0.95136 -0.05900
C 	C 	0.91278 0.85209 0.95568 -0.00900
C 	C 	0.82170 0.71043 0.98998 -0.03200
C 	C 	0.83835 0.68056 0.97133 -0.05800
C 	C 	0.80439 0.62047 0.96969 0.06300
C 	C 	0.79218 0.58495 0.92383 -0.06900
C 	C 	0.76068 0.52805 0.92211 0.01900
C 	C 	0.74162 0.50621 0.96655 -0.06600
C 	C 	0.75496 0.54202 0.01277 0.00900
C 	C 	0.78632 0.59884 0.01438 -0.08000
H 	H 	0.90738 0.88779 0.08034 0.03500
H 	H 	0.84832 0.78661 0.07277 0.04700
H 	H 	0.87076 0.76905 0.91496 0.04900
H 	H 	0.93043 0.87021 0.92285 0.03700
H 	H 	0.78355 0.69059 0.00544 0.03500
H 	H 	0.87642 0.70024 0.95578 0.05100
H 	H 	0.80663 0.60136 0.88937 0.06000
H 	H 	0.75072 0.50102 0.88614 0.06400
H 	H 	0.74147 0.52590 0.04759 0.04200
H 	H 	0.79699 0.62609 0.05045 0.05400
C 	C 	0.85570 0.12897 0.02538 -0.04600
C 	C 	0.87492 0.18039 0.01958 -0.04900
C 	C 	0.83644 0.19478 0.00718 0.03000
C 	C 	0.84102 0.22142 0.96533 -0.05200
C 	C 	0.80486 0.23503 0.95280 0.00700
C 	C 	0.76394 0.22277 0.98247 -0.06800
C 	C 	0.76006 0.19704 0.02516 0.00100
C 	C 	0.79628 0.18328 0.03756 -0.05800
H 	H 	0.91856 0.21028 0.01819 0.04300
H 	H 	0.87223 0.23098 0.94203 0.04700
H 	H 	0.80848 0.25480 0.91977 0.03300
H 	H 	0.72937 0.18804 0.04893 0.06000
H 	H 	0.79336 0.16407 0.07089 0.05300
C 	C 	0.27391 0.11041 0.99322 -0.00900
C 	C 	0.31312 0.15903 0.98118 -0.06900
C 	C 	0.36854 0.17370 0.97611 0.06700
C 	C 	0.39395 0.20065 0.93598 -0.07500
C 	C 	0.44858 0.22008 0.93395 0.02000
C 	C 	0.47851 0.21302 0.97223 -0.07200
C 	C 	0.45251 0.18445 0.01145 0.01000
C 	C 	0.39805 0.16545 0.01376 -0.08200
H 	H 	0.20230 0.11609 0.92787 0.04200
H 	H 	0.30388 0.18776 0.97371 0.05300
H 	H 	0.37169 0.20740 0.90686 0.05500
H 	H 	0.46807 0.24175 0.90331 0.04000
H 	H 	0.47529 0.17920 0.04152 0.05200
H 	H 	0.37955 0.14606 0.04578 0.05600
