data_crystal

_cell_length_a 24.17887
_cell_length_b 36.74915
_cell_length_c 51.31095
_cell_angle_alpha 90.00059
_cell_angle_beta  77.17614
_cell_angle_gamma 89.99951

_symmetry_space_group_name_	'P 1'
_symmetry_space_group_name_H-M	'P 1'

loop_
_symmetry_equiv_pos_as_xyz
  x,y,z

loop_
_atom_site_label
_atom_site_type_symbol
_atom_site_fract_x
_atom_site_fract_y
_atom_site_fract_z
_atom_site_charge
Cu	Cu	0.52702 0.45481 0.17129 0.92900
Cu	Cu	0.62471 0.49904 0.19353 0.86700
Cu	Cu	0.51422 0.53339 0.19044 0.89600
Cu	Cu	0.40913 0.49555 0.18156 0.89500
C 	C 	0.42195 0.41540 0.18240 0.30700
O 	O 	0.51186 0.46402 0.13455 -0.36300
C 	C 	0.61747 0.57629 0.18787 0.30000
O 	O 	0.47120 0.48889 0.19801 -0.63700
O 	O 	0.57227 0.49964 0.16970 -0.64300
O 	O 	0.58395 0.42108 0.18043 -0.37400
O 	O 	0.59938 0.45678 0.21427 -0.44100
O 	O 	0.39789 0.44339 0.17328 -0.38600
O 	O 	0.45671 0.56427 0.21191 -0.38400
C 	C 	0.40426 0.56678 0.20871 0.30900
C 	C 	0.49340 0.49560 0.12788 0.30000
O 	O 	0.46626 0.51780 0.14644 -0.39700
O 	O 	0.37603 0.53765 0.20408 -0.39300
O 	O 	0.47742 0.41377 0.17948 -0.36100
C 	C 	0.60090 0.42479 0.20283 0.31100
O 	O 	0.56410 0.57598 0.18560 -0.38000
O 	O 	0.64987 0.54722 0.18238 -0.41900
H 	H 	0.46112 0.48209 0.21716 0.16300
H 	H 	0.58931 0.50852 0.15147 0.17300
Cu	Cu	0.45853 0.45518 0.79041 0.92900
Cu	Cu	0.36107 0.49953 0.76812 0.86600
Cu	Cu	0.47168 0.53344 0.77071 0.89600
Cu	Cu	0.57681 0.49553 0.77934 0.89500
C 	C 	0.56327 0.41544 0.77903 0.30700
O 	O 	0.47451 0.46478 0.82694 -0.36300
C 	C 	0.36868 0.57693 0.77392 0.30100
O 	O 	0.51424 0.48878 0.76325 -0.63700
O 	O 	0.41365 0.50011 0.79187 -0.64300
O 	O 	0.40104 0.42157 0.78170 -0.37400
O 	O 	0.38554 0.45685 0.74765 -0.44000
O 	O 	0.58780 0.44344 0.78787 -0.38600
O 	O 	0.52902 0.56396 0.74877 -0.38400
C 	C 	0.58175 0.56637 0.75161 0.30900
C 	C 	0.49348 0.49638 0.83329 0.30000
O 	O 	0.52044 0.51830 0.81449 -0.39700
O 	O 	0.60985 0.53727 0.75639 -0.39300
O 	O 	0.50771 0.41392 0.78232 -0.36100
C 	C 	0.38404 0.42499 0.75930 0.31000
O 	O 	0.42230 0.57624 0.77580 -0.38000
O 	O 	0.33612 0.54786 0.77912 -0.41900
H 	H 	0.52388 0.48175 0.74415 0.16300
H 	H 	0.39688 0.50927 0.81006 0.17400
Cu	Cu	0.95911 0.95517 0.29193 0.92700
Cu	Cu	0.86083 0.99904 0.26988 0.86600
Cu	Cu	0.97139 0.03352 0.27219 0.89600
Cu	Cu	0.07690 0.99605 0.28098 0.89400
C 	C 	0.06429 0.91589 0.28049 0.30600
O 	O 	0.97495 0.96486 0.32846 -0.36200
C 	C 	0.86762 0.07636 0.27523 0.30100
O 	O 	0.01447 0.98903 0.26483 -0.63700
O 	O 	0.91375 0.99997 0.29344 -0.64700
O 	O 	0.90200 0.92126 0.28316 -0.37500
O 	O 	0.88608 0.95669 0.24929 -0.44200
O 	O 	0.08851 0.94397 0.28939 -0.38600
O 	O 	0.02858 0.06405 0.25019 -0.38200
C 	C 	0.08115 0.06683 0.25318 0.30900
C 	C 	0.99305 0.99668 0.33487 0.28900
O 	O 	0.02030 0.01863 0.31616 -0.38900
O 	O 	0.10958 0.03794 0.25811 -0.39100
O 	O 	0.00873 0.91411 0.28380 -0.36000
C 	C 	0.88455 0.92480 0.26088 0.31100
O 	O 	0.92148 0.07618 0.27674 -0.38000
O 	O 	0.83558 0.04718 0.28101 -0.41800
H 	H 	0.02428 0.98196 0.24574 0.16300
H 	H 	0.89703 0.00910 0.31164 0.17700
Cu	Cu	0.02764 0.95495 0.67151 0.92900
Cu	Cu	0.12430 0.99961 0.69421 0.86600
Cu	Cu	0.01430 0.03341 0.69088 0.89800
Cu	Cu	0.90958 0.99541 0.68164 0.89300
C 	C 	0.92276 0.91530 0.68234 0.30700
O 	O 	0.01281 0.96432 0.63472 -0.35900
C 	C 	0.11747 0.07693 0.68769 0.30100
O 	O 	0.97145 0.98881 0.69822 -0.63900
O 	O 	0.07256 0.99989 0.67010 -0.64700
O 	O 	0.08451 0.92145 0.68093 -0.37400
O 	O 	0.09886 0.95732 0.71491 -0.44100
O 	O 	0.89872 0.94326 0.67319 -0.38700
O 	O 	0.95648 0.06409 0.71232 -0.38500
C 	C 	0.90410 0.06647 0.70899 0.30900
C 	C 	0.99462 0.99603 0.62813 0.28700
O 	O 	0.96685 0.01799 0.64669 -0.39200
O 	O 	0.87611 0.03728 0.70429 -0.39100
O 	O 	0.97823 0.91375 0.67951 -0.36300
C 	C 	0.10083 0.92528 0.70348 0.31100
O 	O 	0.06375 0.07623 0.68597 -0.37900
O 	O 	0.14978 0.04771 0.68287 -0.41700
H 	H 	0.96124 0.98189 0.71734 0.16300
H 	H 	0.08977 0.00892 0.65193 0.17700
C 	C 	0.00091 0.01739 0.54951 0.00000
C 	C 	0.04391 0.00214 0.52965 -0.03100
C 	C 	0.04204 0.00559 0.50272 -0.03500
C 	C 	0.99714 0.02438 0.49549 0.00400
C 	C 	0.95522 0.04075 0.51537 -0.04000
C 	C 	0.95710 0.03723 0.54230 -0.03700
C 	C 	0.99193 0.02462 0.46738 0.00800
C 	C 	0.03514 0.03974 0.44745 -0.04200
C 	C 	0.03304 0.03651 0.42053 -0.02800
C 	C 	0.98774 0.01824 0.41337 -0.01100
C 	C 	0.94349 0.00435 0.43328 -0.02700
C 	C 	0.94557 0.00750 0.46020 -0.04000
C 	C 	0.98915 0.01100 0.38565 0.04400
C 	C 	0.99045 0.00499 0.36243 -0.10300
C 	C 	0.99919 0.01017 0.57726 0.03800
C 	C 	0.99765 0.00416 0.60051 -0.10000
H 	H 	0.07797 0.98683 0.53508 0.03700
H 	H 	0.07459 0.99282 0.48754 0.03700
H 	H 	0.92062 0.05554 0.50998 0.04000
H 	H 	0.92381 0.04919 0.55756 0.04000
H 	H 	0.07087 0.05326 0.45279 0.04100
H 	H 	0.06731 0.04741 0.40524 0.03900
H 	H 	0.90828 0.99025 0.42789 0.03500
H 	H 	0.91201 0.99574 0.47542 0.03700
C 	C 	0.67159 0.65930 0.72849 -0.00900
C 	C 	0.73097 0.65795 0.72165 -0.03100
C 	C 	0.76233 0.68996 0.71535 -0.04400
C 	C 	0.73445 0.72354 0.71588 0.00900
C 	C 	0.67494 0.72477 0.72235 -0.04300
C 	C 	0.64362 0.69273 0.72863 -0.03100
C 	C 	0.76756 0.75745 0.71015 0.00900
C 	C 	0.80310 0.76852 0.72690 -0.04400
C 	C 	0.83462 0.80061 0.72143 -0.03100
C 	C 	0.83077 0.82182 0.69920 -0.00800
C 	C 	0.79520 0.81087 0.68249 -0.03100
C 	C 	0.76368 0.77878 0.68794 -0.04300
C 	C 	0.86344 0.85476 0.69347 0.04500
C 	C 	0.89062 0.88239 0.68850 -0.10600
C 	C 	0.63950 0.62659 0.73648 0.04600
C 	C 	0.61297 0.59908 0.74314 -0.10700
H 	H 	0.75285 0.63219 0.72148 0.03800
H 	H 	0.80824 0.68871 0.71021 0.04000
H 	H 	0.65303 0.75057 0.72282 0.04000
H 	H 	0.59770 0.69396 0.73392 0.04000
H 	H 	0.80616 0.75233 0.74417 0.04000
H 	H 	0.86199 0.80895 0.73445 0.03800
H 	H 	0.79204 0.82715 0.66527 0.04000
H 	H 	0.73647 0.77041 0.67486 0.04100
C 	C 	0.81485 0.16024 0.72947 -0.00900
C 	C 	0.79141 0.17774 0.71018 -0.03100
C 	C 	0.76011 0.20972 0.71663 -0.04400
C 	C 	0.75201 0.22441 0.74244 0.00900
C 	C 	0.77575 0.20695 0.76172 -0.04400
C 	C 	0.80709 0.17494 0.75523 -0.03000
C 	C 	0.71836 0.25790 0.74932 0.00900
C 	C 	0.66065 0.25830 0.74862 -0.04300
C 	C 	0.62901 0.29025 0.75462 -0.03100
C 	C 	0.65482 0.32196 0.76137 -0.00800
C 	C 	0.71236 0.32158 0.76219 -0.03100
C 	C 	0.74407 0.28965 0.75618 -0.04300
C 	C 	0.62226 0.35487 0.76753 0.04600
C 	C 	0.59523 0.38251 0.77271 -0.10500
C 	C 	0.84657 0.12710 0.72282 0.04600
C 	C 	0.87296 0.09939 0.71678 -0.10700
H 	H 	0.79736 0.16654 0.69021 0.03800
H 	H 	0.74219 0.22311 0.70158 0.04000
H 	H 	0.76963 0.21805 0.78171 0.04100
H 	H 	0.82514 0.16156 0.77024 0.03900
H 	H 	0.64039 0.23388 0.74343 0.04100
H 	H 	0.58449 0.29035 0.75400 0.04100
H 	H 	0.73256 0.34601 0.76742 0.03800
H 	H 	0.78864 0.28964 0.75668 0.04000
C 	C 	0.32289 0.33516 0.72830 -0.01100
C 	C 	0.28465 0.33831 0.71151 -0.03100
C 	C 	0.26062 0.30709 0.70298 -0.04400
C 	C 	0.27465 0.27254 0.71127 0.00900
C 	C 	0.31402 0.26945 0.72756 -0.04400
C 	C 	0.33806 0.30066 0.73602 -0.03000
C 	C 	0.24592 0.23977 0.70413 0.00800
C 	C 	0.18700 0.23586 0.71313 -0.04300
C 	C 	0.16041 0.20350 0.70841 -0.03100
C 	C 	0.19251 0.17483 0.69471 -0.00800
C 	C 	0.25109 0.17905 0.68506 -0.03200
C 	C 	0.27774 0.21143 0.68972 -0.04400
C 	C 	0.16598 0.14036 0.69202 0.04400
C 	C 	0.14380 0.11149 0.68976 -0.10800
C 	C 	0.34422 0.36730 0.73882 0.04800
C 	C 	0.36255 0.39385 0.74784 -0.11700
H 	H 	0.27286 0.36490 0.70540 0.03500
H 	H 	0.23056 0.30976 0.69027 0.04000
H 	H 	0.32506 0.24293 0.73411 0.04100
H 	H 	0.36767 0.29803 0.74897 0.04100
H 	H 	0.16207 0.25755 0.72431 0.04000
H 	H 	0.11507 0.20046 0.71589 0.04000
H 	H 	0.27614 0.15703 0.67438 0.03800
H 	H 	0.32318 0.21426 0.68253 0.04000
C 	C 	0.16677 0.83772 0.73497 -0.01200
C 	C 	0.22271 0.83898 0.73830 -0.03100
C 	C 	0.24787 0.80778 0.74614 -0.04500
C 	C 	0.21722 0.77508 0.75064 0.00900
C 	C 	0.16052 0.77422 0.74823 -0.04400
C 	C 	0.13539 0.80547 0.74042 -0.02900
C 	C 	0.24566 0.74122 0.75590 0.00800
C 	C 	0.29110 0.72736 0.73651 -0.04300
C 	C 	0.31648 0.69444 0.74091 -0.03100
C 	C 	0.29661 0.67510 0.76467 -0.00900
C 	C 	0.25171 0.68907 0.78422 -0.03100
C 	C 	0.22628 0.72205 0.77986 -0.04400
C 	C 	0.32130 0.64042 0.76858 0.04400
C 	C 	0.34272 0.61146 0.77136 -0.10900
C 	C 	0.14307 0.86865 0.72409 0.04800
C 	C 	0.12346 0.89464 0.71498 -0.11800
H 	H 	0.24713 0.86388 0.73424 0.03400
H 	H 	0.29150 0.80880 0.74816 0.04000
H 	H 	0.13648 0.74913 0.75169 0.04100
H 	H 	0.09204 0.80433 0.73798 0.04000
H 	H 	0.30619 0.74186 0.71791 0.04000
H 	H 	0.35117 0.68379 0.72571 0.03800
H 	H 	0.23620 0.67428 0.80267 0.03800
H 	H 	0.19136 0.73258 0.79499 0.04000
C 	C 	0.31582 0.66082 0.22948 -0.00800
C 	C 	0.29486 0.67958 0.20993 -0.03100
C 	C 	0.26398 0.71172 0.21651 -0.04300
C 	C 	0.25390 0.72531 0.24270 0.00900
C 	C 	0.27510 0.70655 0.26224 -0.04400
C 	C 	0.30597 0.67439 0.25563 -0.03000
C 	C 	0.22078 0.75901 0.24970 0.00900
C 	C 	0.24082 0.79205 0.23741 -0.04300
C 	C 	0.20888 0.82384 0.24367 -0.03100
C 	C 	0.15678 0.82283 0.26225 -0.00800
C 	C 	0.13677 0.78990 0.27460 -0.03000
C 	C 	0.16865 0.75807 0.26835 -0.04300
C 	C 	0.12398 0.85561 0.26869 0.04600
C 	C 	0.09664 0.88311 0.27403 -0.10400
C 	C 	0.34718 0.62756 0.22268 0.04700
C 	C 	0.37332 0.59977 0.21656 -0.10700
H 	H 	0.30234 0.66924 0.18967 0.03800
H 	H 	0.24762 0.72593 0.20132 0.04100
H 	H 	0.26773 0.71691 0.28249 0.04100
H 	H 	0.32212 0.66003 0.27084 0.03900
H 	H 	0.28108 0.79306 0.22304 0.04000
H 	H 	0.22464 0.84923 0.23408 0.03700
H 	H 	0.09654 0.78893 0.28900 0.04200
H 	H 	0.15272 0.73267 0.27785 0.04100
C 	C 	0.81111 0.83763 0.23273 -0.01200
C 	C 	0.75644 0.82719 0.24611 -0.03000
C 	C 	0.73209 0.79554 0.23854 -0.04500
C 	C 	0.76230 0.77409 0.21751 0.00900
C 	C 	0.81634 0.78518 0.20357 -0.04500
C 	C 	0.84069 0.81687 0.21118 -0.03000
C 	C 	0.73887 0.73894 0.21127 0.00800
C 	C 	0.73149 0.71056 0.23002 -0.04400
C 	C 	0.70772 0.67757 0.22452 -0.03100
C 	C 	0.69117 0.67270 0.20026 -0.00900
C 	C 	0.69905 0.70085 0.18136 -0.03000
C 	C 	0.72290 0.73391 0.18683 -0.04400
C 	C 	0.66511 0.63903 0.19508 0.04400
C 	C 	0.64343 0.61050 0.19139 -0.11000
C 	C 	0.83795 0.86843 0.24212 0.04800
C 	C 	0.85955 0.89431 0.25034 -0.12000
H 	H 	0.73324 0.84321 0.26272 0.03500
H 	H 	0.69019 0.78731 0.24930 0.04000
H 	H 	0.83994 0.76882 0.18727 0.04000
H 	H 	0.88291 0.82486 0.20068 0.03800
H 	H 	0.74399 0.71415 0.24887 0.04000
H 	H 	0.70186 0.65589 0.23920 0.03500
H 	H 	0.68639 0.69725 0.16255 0.03900
H 	H 	0.72844 0.75567 0.17224 0.04000
C 	C 	0.79084 0.17239 0.26460 -0.00900
C 	C 	0.79265 0.20258 0.28108 -0.03100
C 	C 	0.76687 0.23529 0.27636 -0.04400
C 	C 	0.73914 0.23793 0.25511 0.00800
C 	C 	0.73715 0.20757 0.23875 -0.04400
C 	C 	0.76287 0.17493 0.24350 -0.03100
C 	C 	0.71342 0.27267 0.24954 0.00900
C 	C 	0.74778 0.30325 0.24155 -0.04500
C 	C 	0.72426 0.33509 0.23370 -0.03000
C 	C 	0.66629 0.33654 0.23378 -0.01200
C 	C 	0.63157 0.30645 0.24260 -0.02900
C 	C 	0.65501 0.27462 0.25048 -0.04400
C 	C 	0.64322 0.36787 0.22307 0.04800
C 	C 	0.62375 0.39405 0.21412 -0.11800
C 	C 	0.81836 0.13890 0.26901 0.04400
C 	C 	0.84098 0.11051 0.27219 -0.10900
H 	H 	0.81418 0.20080 0.29744 0.03900
H 	H 	0.76855 0.25855 0.28913 0.04000
H 	H 	0.71614 0.20940 0.22221 0.04100
H 	H 	0.76136 0.15169 0.23067 0.03600
H 	H 	0.79290 0.30203 0.24076 0.04000
H 	H 	0.75133 0.35830 0.22698 0.03400
H 	H 	0.58667 0.30743 0.24282 0.03900
H 	H 	0.62805 0.25125 0.25682 0.04100
C 	C 	0.16931 0.16027 0.22988 -0.00800
C 	C 	0.22517 0.15851 0.21480 -0.03100
C 	C 	0.25663 0.19043 0.20819 -0.04300
C 	C 	0.23237 0.22431 0.21666 0.00900
C 	C 	0.17613 0.22605 0.23144 -0.04300
C 	C 	0.14471 0.19411 0.23802 -0.03100
C 	C 	0.26618 0.25787 0.21054 0.00900
C 	C 	0.31460 0.26303 0.22097 -0.04300
C 	C 	0.34632 0.29502 0.21539 -0.03100
C 	C 	0.32983 0.32203 0.19939 -0.00800
C 	C 	0.28153 0.31692 0.18895 -0.03100
C 	C 	0.24978 0.28494 0.19450 -0.04300
C 	C 	0.36259 0.35491 0.19356 0.04600
C 	C 	0.38977 0.38252 0.18857 -0.10500
C 	C 	0.13807 0.12729 0.23794 0.04700
C 	C 	0.11196 0.09966 0.24468 -0.10600
H 	H 	0.24441 0.13243 0.20843 0.03900
H 	H 	0.29989 0.18883 0.19663 0.04100
H 	H 	0.15707 0.25207 0.23809 0.04100
H 	H 	0.10154 0.19566 0.24970 0.04000
H 	H 	0.32743 0.24236 0.23348 0.04100
H 	H 	0.38364 0.29880 0.22352 0.04000
H 	H 	0.26860 0.33769 0.17653 0.03900
H 	H 	0.21256 0.28116 0.18630 0.04100
C 	C 	0.49794 0.51379 0.91126 -0.00900
C 	C 	0.53571 0.49271 0.92203 -0.03000
C 	C 	0.53544 0.49501 0.94923 -0.04300
C 	C 	0.49740 0.51844 0.96585 0.00900
C 	C 	0.46080 0.54039 0.95492 -0.04400
C 	C 	0.46107 0.53806 0.92766 -0.03100
C 	C 	0.49274 0.51767 0.99491 0.00900
C 	C 	0.46085 0.49030 0.01040 -0.04300
C 	C 	0.46020 0.48753 0.03761 -0.03000
C 	C 	0.49144 0.51208 0.04953 -0.00900
C 	C 	0.52231 0.53999 0.03423 -0.03100
C 	C 	0.52296 0.54280 0.00696 -0.04400
C 	C 	0.49347 0.50760 0.07717 0.04600
C 	C 	0.49396 0.50281 0.10036 -0.10900
C 	C 	0.49490 0.50885 0.88378 0.04600
C 	C 	0.49373 0.50385 0.86069 -0.10900
H 	H 	0.56444 0.47397 0.90944 0.04000
H 	H 	0.56385 0.47799 0.95753 0.04200
H 	H 	0.43133 0.55859 0.96763 0.04100
H 	H 	0.43190 0.55455 0.91945 0.03800
H 	H 	0.43740 0.47081 0.00123 0.04200
H 	H 	0.43612 0.46595 0.04934 0.04000
H 	H 	0.54642 0.55915 0.04333 0.03800
H 	H 	0.54768 0.56403 0.99512 0.04100
