data_crystal

_cell_length_a 18.41929
_cell_length_b 18.96390
_cell_length_c 26.61177
_cell_angle_alpha 95.42253
_cell_angle_beta  95.42280
_cell_angle_gamma 126.41794

_symmetry_space_group_name_	'P 1'
_symmetry_space_group_name_H-M	'P 1'

loop_
_symmetry_equiv_pos_as_xyz
  x,y,z

loop_
_atom_site_label
_atom_site_type_symbol
_atom_site_fract_x
_atom_site_fract_y
_atom_site_fract_z
_atom_site_charge
C 	C 	0.96800 0.05395 0.98972 0.12300
N 	N 	0.91089 0.96387 0.98389 -0.14800
C 	C 	0.94543 0.91844 0.99013 0.12400
N 	N 	0.03747 0.96255 0.99854 -0.15200
C 	C 	0.09504 0.05178 0.00036 0.12900
N 	N 	0.06062 0.09838 0.99751 -0.14900
C 	C 	0.88878 0.97435 0.45121 0.11100
N 	N 	0.97992 0.02447 0.45033 -0.13200
C 	C 	0.02394 0.98725 0.45141 0.10400
N 	N 	0.97699 0.89961 0.45351 -0.13500
C 	C 	0.88570 0.84842 0.45385 0.11700
N 	N 	0.84121 0.88586 0.45324 -0.14000
Cu	Cu	0.65717 0.25118 0.01527 0.92500
Cu	Cu	0.68637 0.21605 0.89820 0.87900
Cu	Cu	0.65535 0.36228 0.94014 0.90900
Cu	Cu	0.64513 0.40868 0.05060 0.89700
C 	C 	0.67778 0.31298 0.12245 0.30500
O 	O 	0.52339 0.18373 0.02421 -0.34800
C 	C 	0.66296 0.32035 0.83754 0.30400
O 	O 	0.70951 0.38383 0.01109 -0.63200
O 	O 	0.62006 0.24047 0.94079 -0.63400
O 	O 	0.74382 0.21930 0.01389 -0.36600
O 	O 	0.68062 0.13232 0.93399 -0.41900
O 	O 	0.67393 0.37912 0.11615 -0.38600
O 	O 	0.69751 0.48274 0.93990 -0.37700
C 	C 	0.71656 0.53892 0.98136 0.28800
C 	C 	0.47763 0.21567 0.01430 0.28700
O 	O 	0.51936 0.29494 0.00265 -0.39500
O 	O 	0.67062 0.50997 0.01910 -0.38800
O 	O 	0.70347 0.28172 0.08779 -0.35800
C 	C 	0.73523 0.16011 0.97846 0.28800
O 	O 	0.61981 0.33848 0.86615 -0.36500
O 	O 	0.72252 0.31021 0.85937 -0.42700
H 	H 	0.77713 0.42940 0.01905 0.16000
H 	H 	0.55303 0.19459 0.92890 0.16600
Cu	Cu	0.74145 0.32501 0.44222 0.92700
Cu	Cu	0.73962 0.25908 0.55222 0.87400
Cu	Cu	0.59986 0.27744 0.51090 0.89700
Cu	Cu	0.56782 0.31632 0.40790 0.89500
C 	C 	0.67308 0.29911 0.33445 0.30000
O 	O 	0.79243 0.45531 0.44148 -0.34200
C 	C 	0.66905 0.31440 0.62341 0.29900
O 	O 	0.59903 0.25061 0.43918 -0.63900
O 	O 	0.73448 0.34001 0.51594 -0.64000
O 	O 	0.80241 0.26477 0.44535 -0.35700
O 	O 	0.70628 0.17197 0.49492 -0.43700
O 	O 	0.63130 0.33343 0.34804 -0.38000
O 	O 	0.46778 0.20853 0.50167 -0.38500
C 	C 	0.41465 0.20594 0.46333 0.29800
C 	C 	0.75048 0.48732 0.45875 0.28300
O 	O 	0.66657 0.43219 0.46681 -0.39500
O 	O 	0.44885 0.26265 0.43140 -0.39500
O 	O 	0.72437 0.29252 0.36902 -0.34900
C 	C 	0.76476 0.19095 0.46432 0.29100
O 	O 	0.60024 0.28751 0.58589 -0.38300
O 	O 	0.74064 0.31903 0.61409 -0.40300
H 	H 	0.55983 0.18612 0.42424 0.16600
H 	H 	0.77284 0.40237 0.53492 0.18000
C 	C 	0.57927 0.26529 0.69386 -0.03000
C 	C 	0.66065 0.32912 0.67743 -0.07900
C 	C 	0.73832 0.39848 0.71423 0.09000
C 	C 	0.73723 0.39692 0.76677 -0.02500
C 	C 	0.65843 0.32848 0.78302 -0.08400
C 	C 	0.57793 0.26430 0.74645 0.08800
N 	N 	0.49572 0.19591 0.76240 -0.02000
H 	H 	0.51862 0.21303 0.66582 0.05900
H 	H 	0.79803 0.44856 0.79494 0.05600
N 	N 	0.81829 0.47061 0.69834 -0.01900
O 	O 	0.42040 0.18709 0.74970 -0.11200
O 	O 	0.49406 0.13760 0.78546 -0.14000
O 	O 	0.81054 0.51411 0.66599 -0.12000
O 	O 	0.89931 0.49572 0.71820 -0.11700
C 	C 	0.76339 0.36063 0.21186 -0.02700
C 	C 	0.68419 0.29627 0.17506 -0.07500
C 	C 	0.60680 0.22364 0.19063 0.08500
C 	C 	0.60560 0.22220 0.24325 -0.02800
C 	C 	0.68223 0.29072 0.28024 -0.07700
C 	C 	0.76290 0.35805 0.26431 0.09600
N 	N 	0.84333 0.42599 0.30136 -0.02000
H 	H 	0.82400 0.41524 0.19996 0.06000
H 	H 	0.54448 0.16862 0.25534 0.05000
N 	N 	0.52973 0.15107 0.15323 -0.02400
O 	O 	0.91637 0.42954 0.30483 -0.10300
O 	O 	0.84629 0.48882 0.32831 -0.10600
O 	O 	0.54212 0.11035 0.11692 -0.10800
O 	O 	0.44668 0.11927 0.15892 -0.12000
C 	C 	0.83187 0.72413 0.50139 -0.06700
C 	C 	0.83559 0.75214 0.45409 -0.02700
C 	C 	0.81156 0.69270 0.40829 0.05000
C 	C 	0.78967 0.60838 0.41074 -0.02700
C 	C 	0.78858 0.58135 0.45814 -0.09200
C 	C 	0.80958 0.63960 0.50387 0.09000
C 	C 	0.80810 0.61193 0.55531 -0.20200
H 	H 	0.85040 0.76972 0.53655 0.05300
H 	H 	0.77099 0.56281 0.37556 0.05500
C 	C 	0.81322 0.72040 0.35687 -0.18200
H 	H 	0.83930 0.66908 0.58759 0.07900
H 	H 	0.84776 0.58525 0.55909 0.08000
H 	H 	0.73610 0.55968 0.55898 0.08200
H 	H 	0.88539 0.76740 0.35164 0.07200
H 	H 	0.77985 0.75351 0.35450 0.06800
H 	H 	0.77567 0.66198 0.32479 0.06800
C 	C 	0.77496 0.08012 0.41402 -0.02200
C 	C 	0.80112 0.13917 0.45999 -0.09700
C 	C 	0.85031 0.13859 0.50393 0.08300
C 	C 	0.86908 0.07662 0.50177 -0.06600
C 	C 	0.84485 0.01890 0.45564 -0.02300
C 	C 	0.79634 0.01980 0.41150 0.05100
C 	C 	0.76975 0.95866 0.36140 -0.18500
H 	H 	0.73663 0.07997 0.38042 0.04500
H 	H 	0.90667 0.07626 0.53555 0.05200
C 	C 	0.88169 0.20284 0.55353 -0.19100
H 	H 	0.72402 0.96049 0.33210 0.06700
H 	H 	0.73248 0.88877 0.36738 0.07000
H 	H 	0.83238 0.97913 0.34612 0.07100
H 	H 	0.82290 0.17893 0.57351 0.03500
H 	H 	0.91013 0.27055 0.54596 0.04900
H 	H 	0.93666 0.20887 0.57961 0.06700
C 	C 	0.18167 0.11119 0.49681 -0.07400
C 	C 	0.12363 0.04322 0.45389 -0.01900
C 	C 	0.16135 0.02886 0.41397 0.04800
C 	C 	0.25702 0.08136 0.41841 -0.02200
C 	C 	0.31509 0.14915 0.46139 -0.10400
C 	C 	0.27730 0.16510 0.50067 0.10100
C 	C 	0.33842 0.23871 0.54692 -0.20600
H 	H 	0.15226 0.12188 0.52732 0.05400
H 	H 	0.28644 0.06984 0.38822 0.03300
C 	C 	0.10010 0.95681 0.36709 -0.18300
H 	H 	0.29823 0.24977 0.57054 0.07400
H 	H 	0.38904 0.30252 0.53462 0.08000
H 	H 	0.37538 0.22099 0.57149 0.09100
H 	H 	0.04431 0.96017 0.35153 0.06700
H 	H 	0.06952 0.89036 0.37740 0.07200
H 	H 	0.13899 0.96406 0.33597 0.06400
C 	C 	0.74853 0.68586 0.00453 -0.01900
C 	C 	0.77186 0.63494 0.97994 -0.10400
C 	C 	0.85171 0.67768 0.95778 0.08900
C 	C 	0.90385 0.76956 0.95866 -0.06600
C 	C 	0.88338 0.82093 0.98578 -0.03600
C 	C 	0.80650 0.77890 0.01038 0.05500
C 	C 	0.78647 0.83244 0.04356 -0.18300
H 	H 	0.68663 0.65317 0.02077 0.04600
H 	H 	0.96222 0.80171 0.93938 0.05100
C 	C 	0.88255 0.62644 0.93375 -0.19700
H 	H 	0.73727 0.79173 0.06843 0.06500
H 	H 	0.75572 0.85587 0.01890 0.07600
H 	H 	0.85019 0.89048 0.06945 0.07200
H 	H 	0.83696 0.58503 0.89615 0.08400
H 	H 	0.88172 0.58328 0.95953 0.06100
H 	H 	0.95395 0.67204 0.92693 0.07000
C 	C 	0.88480 0.09865 0.03321 -0.06700
C 	C 	0.92900 0.10282 0.99217 -0.03300
C 	C 	0.91588 0.13382 0.94863 0.04400
C 	C 	0.85231 0.15230 0.94479 -0.02000
C 	C 	0.80271 0.14145 0.98417 -0.11500
C 	C 	0.81992 0.11542 0.02912 0.10500
C 	C 	0.76841 0.10382 0.07235 -0.21000
H 	H 	0.89633 0.07632 0.06702 0.05100
H 	H 	0.84096 0.17461 0.91092 0.01800
C 	C 	0.96554 0.14245 0.90495 -0.17500
H 	H 	0.77799 0.06869 0.10025 0.07600
H 	H 	0.69356 0.06346 0.05711 0.08800
H 	H 	0.79373 0.17014 0.09332 0.09700
H 	H 	0.93814 0.07513 0.88446 0.07000
H 	H 	0.04024 0.18099 0.91991 0.06700
H 	H 	0.95704 0.17797 0.87689 0.06200
C 	C 	0.31611 0.09958 0.97205 -0.02800
C 	C 	0.37913 0.16282 0.01560 -0.08700
C 	C 	0.34851 0.19045 0.05415 0.09400
C 	C 	0.25623 0.15761 0.04716 -0.06800
C 	C 	0.19386 0.09650 0.00280 -0.02300
C 	C 	0.22452 0.06877 0.96431 0.04500
C 	C 	0.15988 0.00592 0.91512 -0.17700
H 	H 	0.33973 0.07859 0.94251 0.04000
H 	H 	0.23268 0.17867 0.07669 0.05300
C 	C 	0.41522 0.25999 0.10094 -0.20200
H 	H 	0.19825 0.01071 0.88415 0.06900
H 	H 	0.11368 0.02229 0.90117 0.07000
H 	H 	0.11808 0.93624 0.92174 0.06800
H 	H 	0.44899 0.32754 0.09164 0.06000
H 	H 	0.46867 0.25215 0.11401 0.08600
H 	H 	0.37947 0.25419 0.13346 0.07600
