data_crystal

_cell_length_a 16.80134
_cell_length_b 15.69980
_cell_length_c 43.22146
_cell_angle_alpha 89.52335
_cell_angle_beta  82.25823
_cell_angle_gamma 105.71718

_symmetry_space_group_name_	'P 1'
_symmetry_space_group_name_H-M	'P 1'

loop_
_symmetry_equiv_pos_as_xyz
  x,y,z

loop_
_atom_site_label
_atom_site_type_symbol
_atom_site_fract_x
_atom_site_fract_y
_atom_site_fract_z
_atom_site_charge
Zn	Zn	0.72191 0.32869 0.95648 1.20700
Zn	Zn	0.77406 0.49115 0.91069 1.21700
Zn	Zn	0.57880 0.25265 0.91739 1.21900
P 	P 	0.75759 0.30860 0.89102 0.30200
P 	P 	0.60477 0.42658 0.94504 0.30300
C 	C 	0.49308 0.17794 0.86822 0.27400
C 	C 	0.60812 0.16080 0.97314 0.32100
O 	O 	0.80257 0.32048 0.92112 -0.43000
O 	O 	0.61979 0.36036 0.96992 -0.44100
O 	O 	0.73554 0.39776 0.88236 -0.43100
O 	O 	0.58732 0.37805 0.91334 -0.43100
O 	O 	0.67693 0.22510 0.89633 -0.41200
O 	O 	0.68339 0.51207 0.93957 -0.40700
O 	O 	0.48764 0.17634 0.89886 -0.40900
O 	O 	0.69517 0.61581 0.88396 -0.23600
O 	O 	0.56022 0.22841 0.85121 -0.24700
O 	O 	0.55463 0.19481 0.96093 -0.43000
O 	O 	0.68750 0.20470 0.97056 -0.42700
Zn	Zn	0.69733 0.18180 0.52877 1.21000
Zn	Zn	0.54340 0.14812 0.57997 1.21900
Zn	Zn	0.75762 0.36841 0.55671 1.21700
P 	P 	0.71411 0.19921 0.59445 0.30400
P 	P 	0.59552 0.30118 0.53333 0.30700
C 	C 	0.78901 0.53955 0.58092 0.26900
C 	C 	0.56660 0.02342 0.53153 0.24600
O 	O 	0.70952 0.12994 0.56792 -0.45300
O 	O 	0.66498 0.27620 0.50975 -0.44000
O 	O 	0.62594 0.21901 0.60338 -0.44000
O 	O 	0.63714 0.35475 0.56106 -0.41600
O 	O 	0.78688 0.28785 0.58423 -0.42400
O 	O 	0.52330 0.21392 0.54580 -0.42100
O 	O 	0.82543 0.48230 0.56759 -0.40600
O 	O 	0.42104 0.24523 0.59985 -0.23200
O 	O 	0.71062 0.53251 0.57828 -0.23800
O 	O 	0.55834 0.03377 0.56208 -0.42900
O 	O 	0.62158 0.08281 0.51236 -0.43000
C 	C 	0.39085 0.16291 0.61083 0.26600
O 	O 	0.43384 0.10542 0.60384 -0.41900
Zn	Zn	0.07322 0.04263 0.78142 1.20700
P 	P 	0.10634 0.07297 0.71334 0.26900
C 	C 	0.85405 0.04288 0.69222 0.28800
O 	O 	0.07434 0.96741 0.71403 -0.39800
O 	O 	0.14054 0.11041 0.74482 -0.41700
O 	O 	0.23029 0.98509 0.78045 -0.18400
O 	O 	0.84689 0.06704 0.72117 -0.44900
C 	C 	0.21873 0.02876 0.80566 0.20800
O 	O 	0.15047 0.05467 0.81172 -0.40800
Zn	Zn	0.45872 0.49043 0.35782 1.20100
Zn	Zn	0.30472 0.38935 0.40601 1.22500
Zn	Zn	0.45497 0.64943 0.40165 1.22300
P 	P 	0.46793 0.47936 0.42446 0.32800
P 	P 	0.30871 0.55204 0.37270 0.30300
C 	C 	0.44250 0.74143 0.45514 0.30000
C 	C 	0.57955 0.66264 0.34604 0.29200
C 	C 	0.36397 0.31398 0.34921 0.28600
O 	O 	0.48702 0.43101 0.39340 -0.42100
O 	O 	0.38782 0.56258 0.34698 -0.44400
O 	O 	0.37061 0.47010 0.43218 -0.42300
O 	O 	0.33580 0.59375 0.40447 -0.42200
O 	O 	0.51869 0.58105 0.41962 -0.41800
O 	O 	0.25654 0.45045 0.37812 -0.42500
O 	O 	0.47785 0.75302 0.42579 -0.39900
O 	O 	0.25352 0.35405 0.47467 -0.20700
O 	O 	0.39350 0.66340 0.46551 -0.23500
O 	O 	0.51817 0.69419 0.35914 -0.42400
O 	O 	0.35769 0.30899 0.37991 -0.41100
O 	O 	0.56851 0.57615 0.34398 -0.42900
O 	O 	0.41189 0.38625 0.33350 -0.42100
C 	C 	0.19279 0.31660 0.45886 0.30600
O 	O 	0.21031 0.30509 0.42893 -0.40700
Zn	Zn	0.35775 0.51139 0.11682 1.20300
Zn	Zn	0.20423 0.53077 0.08604 1.22000
Zn	Zn	0.45109 0.69065 0.07968 1.22000
P 	P 	0.29826 0.66766 0.12366 0.30600
P 	P 	0.36318 0.53187 0.04904 0.32400
C 	C 	0.49129 0.86983 0.06324 0.25800
C 	C 	0.53020 0.59918 0.12056 0.29200
C 	C 	0.20204 0.37760 0.12691 0.29400
O 	O 	0.28761 0.57535 0.14105 -0.44000
O 	O 	0.40793 0.49735 0.07458 -0.43200
O 	O 	0.26019 0.65375 0.09164 -0.42500
O 	O 	0.37658 0.63628 0.05055 -0.43600
O 	O 	0.39476 0.72029 0.11835 -0.40900
O 	O 	0.26608 0.48066 0.05388 -0.40000
O 	O 	0.52498 0.80347 0.06389 -0.40500
O 	O 	0.12689 0.65675 0.05706 -0.22700
O 	O 	0.41580 0.86066 0.07816 -0.22500
O 	O 	0.53165 0.62575 0.09132 -0.42800
O 	O 	0.17088 0.44565 0.12388 -0.42900
O 	O 	0.45998 0.55088 0.13689 -0.42900
O 	O 	0.28358 0.39045 0.12460 -0.42500
C 	C 	0.08358 0.57436 0.05475 0.25900
O 	O 	0.09769 0.51079 0.07133 -0.40600
Zn	Zn	0.03305 0.00874 0.24263 1.17900
Zn	Zn	0.05814 0.86629 0.28431 1.21600
P 	P 	0.10282 0.86575 0.21704 0.30100
C 	C 	0.99424 0.06057 0.18664 0.24300
C 	C 	0.13642 0.06176 0.28843 0.23500
O 	O 	0.10655 0.96597 0.20969 -0.41300
O 	O 	0.01000 0.80397 0.21742 -0.42600
O 	O 	0.13936 0.86004 0.24911 -0.40700
O 	O 	0.04054 0.67505 0.29543 -0.24400
O 	O 	0.99416 0.98194 0.17591 -0.37600
O 	O 	0.08608 0.98875 0.30322 -0.37800
O 	O 	0.12271 0.08630 0.26109 -0.44500
C 	C 	0.08343 0.72052 0.31599 0.27500
O 	O 	0.09115 0.80570 0.31735 -0.40600
C 	C 	0.05372 0.25232 0.13625 -0.01100
H 	H 	0.01922 0.28247 0.12113 0.04300
C 	C 	0.03025 0.23329 0.17203 -0.01200
C 	C 	0.06951 0.15965 0.13257 -0.01400
H 	H 	0.04721 0.11220 0.11465 0.03900
C 	C 	0.04675 0.14194 0.16814 -0.05800
C 	C 	0.14547 0.29156 0.14097 -0.05900
C 	C 	0.16216 0.20034 0.13697 -0.00700
H 	H 	0.21713 0.18749 0.12249 0.04500
C 	C 	0.13862 0.18146 0.17271 -0.02000
H 	H 	0.17345 0.15177 0.18784 0.03300
C 	C 	0.12252 0.27339 0.17647 -0.00700
H 	H 	0.14471 0.32058 0.19450 0.04000
C 	C 	0.63741 0.72755 0.14599 -0.01000
H 	H 	0.60705 0.78094 0.14264 0.04300
C 	C 	0.72771 0.72912 0.13202 -0.01000
C 	C 	0.65094 0.69221 0.17786 -0.01200
H 	H 	0.63298 0.71709 0.20100 0.04300
C 	C 	0.74033 0.69335 0.16372 -0.05100
C 	C 	0.60651 0.63157 0.13615 -0.06400
C 	C 	0.61917 0.59583 0.16785 -0.00600
H 	H 	0.57408 0.54070 0.18255 0.04400
C 	C 	0.70948 0.59733 0.15388 -0.01600
H 	H 	0.73980 0.54392 0.15722 0.04400
C 	C 	0.69585 0.63267 0.12196 -0.00800
H 	H 	0.71380 0.60778 0.09883 0.04600
C 	C 	0.14539 0.79807 0.15437 -0.01800
H 	H 	0.09683 0.81760 0.14318 0.04400
C 	C 	0.14964 0.70200 0.16023 -0.01900
H 	H 	0.10544 0.64099 0.15345 0.04200
C 	C 	0.24076 0.82730 0.14259 -0.01200
H 	H 	0.27117 0.86921 0.12116 0.06900
C 	C 	0.24384 0.73176 0.14893 -0.01800
C 	C 	0.16431 0.81901 0.18771 -0.02200
C 	C 	0.25862 0.84900 0.17646 -0.01200
H 	H 	0.30271 0.90995 0.18332 0.05700
C 	C 	0.26266 0.75277 0.18225 -0.01400
H 	H 	0.31097 0.73312 0.19355 0.05000
C 	C 	0.16787 0.72345 0.19379 -0.01500
H 	H 	0.13764 0.68094 0.21513 0.05500
C 	C 	0.70173 0.82021 0.33668 -0.00000
H 	H 	0.68007 0.85720 0.35636 0.05100
C 	C 	0.71320 0.84838 0.30138 -0.02200
H 	H 	0.70262 0.90963 0.29183 0.06000
C 	C 	0.65738 0.72475 0.32909 -0.06500
C 	C 	0.66766 0.75224 0.29427 0.00300
H 	H 	0.61850 0.73302 0.27887 0.04100
C 	C 	0.26568 0.20494 0.28840 -0.01400
H 	H 	0.27763 0.22061 0.26281 0.04200
C 	C 	0.32918 0.18418 0.30810 -0.00900
H 	H 	0.39394 0.18336 0.29894 0.03600
C 	C 	0.24201 0.26667 0.31362 -0.01000
H 	H 	0.23515 0.33383 0.30900 0.04000
C 	C 	0.30491 0.24526 0.33309 -0.06300
C 	C 	0.19697 0.12635 0.30539 -0.05100
C 	C 	0.17279 0.18749 0.33040 -0.01500
H 	H 	0.10807 0.18844 0.33957 0.04000
C 	C 	0.23627 0.16672 0.35014 -0.01000
H 	H 	0.22440 0.15126 0.37574 0.05100
C 	C 	0.25979 0.10475 0.32487 -0.01900
H 	H 	0.26651 0.03756 0.32950 0.03100
C 	C 	0.15422 0.61096 0.37337 -0.02200
H 	H 	0.12562 0.58303 0.39724 0.05000
C 	C 	0.11778 0.58279 0.34277 -0.00600
H 	H 	0.05788 0.53232 0.34119 0.04400
C 	C 	0.17514 0.70984 0.36225 -0.00200
H 	H 	0.16227 0.76399 0.37672 0.05700
C 	C 	0.13938 0.68085 0.33184 -0.05600
C 	C 	0.24045 0.60803 0.35713 -0.01900
C 	C 	0.26251 0.70597 0.34630 -0.02200
H 	H 	0.32266 0.75593 0.34795 0.05200
C 	C 	0.22588 0.67766 0.31574 -0.00400
H 	H 	0.25478 0.70525 0.29185 0.04400
C 	C 	0.20476 0.57919 0.32679 -0.02000
H 	H 	0.21760 0.52502 0.31231 0.04700
C 	C 	0.51560 0.94521 0.51854 -0.00200
C 	C 	0.53161 0.86318 0.52266 -0.02600
C 	C 	0.50669 0.79631 0.50204 0.02200
C 	C 	0.46546 0.81105 0.47720 -0.09200
C 	C 	0.44317 0.89064 0.47463 0.13200
C 	C 	0.46762 0.95702 0.49551 -0.00200
H 	H 	0.52181 0.73403 0.50474 0.04600
H 	H 	0.45381 0.01996 0.49262 0.03700
H 	H 	0.56809 0.85324 0.54054 0.06500
Br	Br	0.37975 0.91003 0.44276 -0.18600
C 	C 	0.06131 0.35676 0.45584 0.02100
C 	C 	0.10694 0.31277 0.47197 -0.10500
C 	C 	0.07296 0.27350 0.50194 0.14500
H 	H 	0.08798 0.38954 0.43316 0.03500
Br	Br	0.13155 0.20944 0.52433 -0.22300
C 	C 	0.54679 0.36169 0.50993 0.01400
C 	C 	0.58964 0.44750 0.49804 -0.03500
C 	C 	0.56538 0.48326 0.47217 0.01100
C 	C 	0.50106 0.43147 0.45697 -0.05700
C 	C 	0.45953 0.34461 0.46874 0.14100
C 	C 	0.47742 0.31397 0.49661 -0.06600
H 	H 	0.59822 0.55012 0.46347 0.05300
H 	H 	0.44337 0.24784 0.50575 0.09500
H 	H 	0.64341 0.48525 0.50803 0.05400
Br	Br	0.39167 0.26047 0.44455 -0.24200
C 	C 	0.76789 0.19275 0.65752 -0.01800
C 	C 	0.83109 0.12725 0.62131 -0.00100
C 	C 	0.74685 0.14966 0.62683 -0.02800
C 	C 	0.81084 0.07941 0.66956 -0.05300
C 	C 	0.78958 0.03663 0.63876 -0.06200
H 	H 	0.79904 0.97226 0.63116 0.08900
C 	C 	0.70466 0.05937 0.64396 -0.01400
H 	H 	0.64337 0.01472 0.64025 0.02700
C 	C 	0.72637 0.10168 0.67525 -0.01400
H 	H 	0.68366 0.09060 0.69775 0.03700
C 	C 	0.18456 0.07964 0.64748 -0.01100
H 	H 	0.12585 0.04498 0.63856 0.02900
C 	C 	0.26355 0.04616 0.64626 -0.07000
H 	H 	0.27146 0.98419 0.63573 0.09900
C 	C 	0.23990 0.17415 0.63685 -0.01200
H 	H 	0.22837 0.21730 0.61845 0.05600
C 	C 	0.31790 0.14021 0.63600 -0.03800
C 	C 	0.19185 0.10332 0.68156 -0.02900
C 	C 	0.24579 0.19731 0.67143 -0.01200
H 	H 	0.23749 0.25897 0.68210 0.05200
C 	C 	0.32473 0.16373 0.67019 -0.01500
H 	H 	0.38319 0.19828 0.67929 0.04300
C 	C 	0.26961 0.06937 0.68075 -0.00800
H 	H 	0.28099 0.02622 0.69919 0.03700
H 	H 	0.74933 0.68320 0.66252 0.04600
C 	C 	0.80834 0.57284 0.64016 -0.01200
H 	H 	0.76426 0.51031 0.65088 0.04200
H 	H 	0.78617 0.72692 0.59738 0.05100
C 	C 	0.03083 0.55210 0.02986 -0.01700
C 	C 	0.03349 0.47891 0.01174 -0.06500
H 	H 	0.07449 0.43873 0.01604 0.08200
C 	C 	0.53000 0.94687 0.04154 0.01700
C 	C 	0.51034 0.02709 0.04749 -0.08700
C 	C 	0.53274 0.09531 0.02448 0.03000
C 	C 	0.57667 0.08502 0.99550 -0.09900
C 	C 	0.59889 0.00574 0.98970 0.05900
C 	C 	0.57552 0.93697 0.01273 -0.00600
H 	H 	0.51704 0.15689 0.02934 0.04100
H 	H 	0.59016 0.87491 0.00779 0.06800
H 	H 	0.47591 0.03578 0.06975 0.05500
Br	Br	0.65843 0.98916 0.95006 -0.16500
C 	C 	0.51481 0.45842 0.96257 0.00500
C 	C 	0.52147 0.54778 0.96809 -0.03200
C 	C 	0.46873 0.57062 0.99253 0.00500
C 	C 	0.40916 0.50421 0.01166 -0.06000
C 	C 	0.39609 0.41473 0.00359 0.13700
C 	C 	0.44709 0.39316 0.97831 -0.07000
H 	H 	0.47799 0.63962 0.99782 0.04300
H 	H 	0.43950 0.32424 0.97310 0.07000
H 	H 	0.57119 0.59933 0.95498 0.07000
Br	Br	0.31503 0.31965 0.02825 -0.22500
C 	C 	0.82851 0.27911 0.86033 -0.01200
C 	C 	0.81048 0.25679 0.82706 -0.02700
H 	H 	0.75469 0.26320 0.81710 0.05500
C 	C 	0.34835 0.05101 0.86445 0.00900
H 	H 	0.34400 0.01094 0.88622 0.03300
C 	C 	0.35415 0.01707 0.83083 -0.08700
H 	H 	0.35358 0.94844 0.82464 0.09800
C 	C 	0.28309 0.09860 0.85679 -0.02600
H 	H 	0.22393 0.09715 0.87202 0.04800
C 	C 	0.29005 0.06527 0.82341 -0.02300
C 	C 	0.41851 0.13498 0.85290 -0.06400
C 	C 	0.35431 0.18301 0.84547 -0.00000
H 	H 	0.35486 0.25167 0.85162 0.04300
C 	C 	0.36032 0.14917 0.81195 -0.02700
H 	H 	0.36484 0.18935 0.79020 0.04600
C 	C 	0.42526 0.10151 0.81953 0.01000
H 	H 	0.48431 0.10292 0.80424 0.03400
C 	C 	0.79204 0.80201 0.84744 0.00000
H 	H 	0.74937 0.82731 0.86452 0.05600
O 	O 	0.79306 0.41308 0.98039 -0.43300
C 	C 	0.77664 0.64597 0.87717 0.27500
O 	O 	0.82479 0.60508 0.88921 -0.40900
O 	O 	0.81943 0.35906 0.51385 -0.42400
O 	O 	0.81299 0.21172 0.51086 -0.43300
H 	H 	0.77283 0.78428 0.11734 0.05300
C 	C 	0.74116 0.70121 0.32442 0.00100
H 	H 	0.75245 0.64008 0.33376 0.04700
C 	C 	0.75173 0.72886 0.28950 -0.02600
C 	C 	0.85250 0.16975 0.65225 -0.00800
H 	H 	0.75853 0.25730 0.66493 0.04400
C 	C 	0.79985 0.66715 0.64632 -0.00900
C 	C 	0.82025 0.69146 0.61082 -0.00900
C 	C 	0.82915 0.59779 0.60492 -0.05200
Br	Br	0.98757 0.35622 0.96391 -0.22900
C 	C 	0.83562 0.17000 0.83092 -0.00000
H 	H 	0.80148 0.10392 0.82370 0.03500
C 	C 	0.78104 0.78334 0.81287 -0.01800
H 	H 	0.73011 0.79455 0.80086 0.05800
C 	C 	0.81285 0.71313 0.85092 -0.05700
C 	C 	0.81453 0.72799 0.18029 0.27100
C 	C 	0.78682 0.79703 0.33165 -0.02900
H 	H 	0.77250 0.69082 0.26997 0.06200
O 	O 	0.82305 0.68366 0.20493 -0.24900
C 	C 	0.85296 0.19263 0.86444 -0.02000
H 	H 	0.83189 0.14585 0.88522 0.05700
C 	C 	0.80130 0.69357 0.81673 -0.00400
H 	H 	0.76617 0.62934 0.80848 0.04600
H 	H 	0.92153 0.91222 0.84547 0.05500
C 	C 	0.88624 0.84780 0.83739 -0.02600
H 	H 	0.87423 0.13819 0.59889 0.04500
H 	H 	0.92380 0.35271 0.79358 0.04200
C 	C 	0.85633 0.29528 0.50769 0.29000
O 	O 	0.91837 0.01353 0.68104 -0.45300
C 	C 	0.90261 0.30628 0.81443 -0.00100
C 	C 	0.85877 0.47186 0.96567 0.33000
O 	O 	0.86823 0.48428 0.93488 -0.42100
Zn	Zn	0.94436 0.08251 0.74252 1.19300
Zn	Zn	0.96337 0.92477 0.70273 1.22300
P 	P 	0.92123 0.90616 0.77067 0.29700
C 	C 	0.92746 0.75643 0.67408 0.27500
C 	C 	0.97740 0.17732 0.79591 0.30200
O 	O 	0.89336 0.99387 0.77674 -0.41000
O 	O 	0.88878 0.86438 0.73938 -0.39600
O 	O 	0.94985 0.84280 0.66909 -0.40200
O 	O 	0.92256 0.72218 0.70230 -0.23700
O 	O 	0.99775 0.10729 0.80590 -0.44700
O 	O 	0.97447 0.18888 0.76607 -0.44600
Zn	Zn	0.93815 0.86696 0.20208 1.21900
P 	P 	0.89204 0.87710 0.27080 0.29900
O 	O 	0.86295 0.88703 0.23736 -0.41300
O 	O 	0.86364 0.80836 0.17323 -0.40600
H 	H 	0.83647 0.81618 0.34684 0.04700
C 	C 	0.79659 0.82428 0.29687 -0.01300
C 	C 	0.94621 0.31649 0.49817 -0.04100
C 	C 	0.98129 0.35868 0.46893 -0.02500
H 	H 	0.96619 0.24412 0.53773 0.06900
H 	H 	0.94516 0.38946 0.45575 0.05200
H 	H 	0.91385 0.21478 0.65571 0.04500
C 	C 	0.89357 0.69836 0.64895 -0.05200
C 	C 	0.91452 0.72340 0.61370 -0.01000
H 	H 	0.95858 0.78592 0.60296 0.05500
C 	C 	0.92298 0.62889 0.60747 -0.01100
H 	H 	0.97344 0.61280 0.59125 0.05100
C 	C 	0.90259 0.60472 0.64307 -0.01100
H 	H 	0.93664 0.56933 0.65656 0.04600
C 	C 	0.93024 0.58470 0.99957 0.02900
C 	C 	0.92905 0.50861 0.98267 -0.11300
H 	H 	0.88871 0.62452 0.99558 0.03600
H 	H 	0.97974 0.66413 0.03648 0.05900
C 	C 	0.94465 0.24202 0.85204 0.00200
C 	C 	0.92691 0.21954 0.81866 -0.07300
C 	C 	0.91955 0.32928 0.84831 -0.02800
H 	H 	0.95304 0.39526 0.85578 0.04900
C 	C 	0.89534 0.73920 0.80674 -0.02300
H 	H 	0.93805 0.71407 0.78963 0.05600
C 	C 	0.87449 0.82782 0.80333 -0.01500
C 	C 	0.90645 0.75805 0.84122 -0.00300
H 	H 	0.95783 0.74728 0.85307 0.05000
O 	O 	0.94409 0.97169 0.27932 -0.40500
O 	O 	0.03460 0.11577 0.70708 -0.43300
O 	O 	0.01983 0.92426 0.76987 -0.41000
C 	C 	0.98095 0.60643 0.02304 -0.03700
C 	C 	0.98334 0.45744 0.98805 0.14800
O 	O 	0.97595 0.06738 0.21672 -0.45300
H 	H 	0.00014 0.23543 0.86216 0.04900
H 	H 	0.97542 0.24639 0.18653 0.04200
O 	O 	0.94883 0.81110 0.27219 -0.43000
C 	C 	0.99339 0.27685 0.51507 -0.06100
