data_crystal

_cell_length_a 26.22013
_cell_length_b 26.31206
_cell_length_c 26.55266
_cell_angle_alpha 95.50013
_cell_angle_beta  95.49963
_cell_angle_gamma 125.78588

_symmetry_space_group_name_	'P 1'
_symmetry_space_group_name_H-M	'P 1'

loop_
_symmetry_equiv_pos_as_xyz
  x,y,z

loop_
_atom_site_label
_atom_site_type_symbol
_atom_site_fract_x
_atom_site_fract_y
_atom_site_fract_z
_atom_site_charge
C 	C 	0.98582 0.05160 0.99944 0.03300
C 	C 	0.05178 0.08404 0.00084 -0.08200
C 	C 	0.07752 0.04992 0.99781 0.02700
C 	C 	0.99027 0.02295 0.44344 -0.05000
H 	H 	0.01661 0.07362 0.44353 0.04200
C 	C 	0.78787 0.08980 0.53541 -0.03500
C 	C 	0.81163 0.05411 0.53169 -0.05500
C 	C 	0.83762 0.05093 0.48869 0.04100
C 	C 	0.86340 0.01688 0.48558 -0.07700
C 	C 	0.89077 0.01520 0.44309 0.03200
H 	H 	0.76825 0.09200 0.56897 0.03500
C 	C 	0.24191 0.10568 0.54088 -0.05200
C 	C 	0.19979 0.08713 0.49441 0.04200
C 	C 	0.13389 0.05394 0.49326 -0.07900
C 	C 	0.09206 0.03495 0.44655 0.03400
C 	C 	0.96204 0.11963 0.96011 -0.06800
C 	C 	0.95800 0.08684 0.00009 0.01400
H 	H 	0.98856 0.12179 0.93039 0.04800
C 	C 	0.24653 0.10248 0.03612 0.03700
C 	C 	0.28191 0.09434 0.07321 -0.05200
C 	C 	0.14680 0.08361 0.99954 0.02600
C 	C 	0.18269 0.07737 0.03782 -0.07800
C 	C 	0.89066 0.04610 0.40275 -0.07900
H 	H 	0.16039 0.05175 0.06813 0.04900
C 	C 	0.83900 0.08329 0.44881 -0.02900
H 	H 	0.26033 0.06912 0.10384 0.04300
H 	H 	0.91149 0.04437 0.36985 0.05000
C 	C 	0.11606 0.05000 0.40091 -0.08000
H 	H 	0.22391 0.09500 0.57645 0.04400
H 	H 	0.11497 0.04205 0.52839 0.05100
H 	H 	0.92112 0.05899 0.06975 0.04800
C 	C 	0.92365 0.08387 0.03867 -0.07000
H 	H 	0.81016 0.02927 0.56245 0.04300
H 	H 	0.08341 0.03504 0.36493 0.05000
H 	H 	0.37187 0.11182 0.09974 0.04400
C 	C 	0.86512 0.08043 0.40554 0.04200
C 	C 	0.17563 0.11731 0.96051 -0.07500
C 	C 	0.22381 0.10135 0.44838 -0.02800
C 	C 	0.18181 0.08292 0.40153 0.04200
C 	C 	0.85517 0.10699 0.07386 -0.05000
C 	C 	0.89134 0.11156 0.03638 0.03400
H 	H 	0.85295 0.08311 0.10556 0.04300
C 	C 	0.34524 0.11851 0.07083 -0.03700
H 	H 	0.14774 0.12192 0.93096 0.04900
C 	C 	0.86643 0.11292 0.36606 -0.05400
H 	H 	0.88622 0.11086 0.33258 0.04400
C 	C 	0.81512 0.11933 0.45260 0.00300
C 	C 	0.78976 0.12279 0.49617 0.00800
H 	H 	0.79307 0.12828 0.09932 0.04600
C 	C 	0.20605 0.09694 0.35583 -0.05400
H 	H 	0.17418 0.08296 0.31966 0.04200
C 	C 	0.27154 0.12888 0.35656 -0.03500
C 	C 	0.30749 0.13801 0.54165 -0.03600
C 	C 	0.82112 0.13264 0.07030 -0.03600
H 	H 	0.33936 0.15203 0.57783 0.05000
C 	C 	0.02258 0.99540 0.44485 0.00100
H 	H 	0.96051 0.18327 0.88782 0.04200
C 	C 	0.93271 0.17917 0.91697 -0.05200
C 	C 	0.93017 0.14772 0.95757 0.03600
C 	C 	0.92413 0.98536 0.44277 0.00700
C 	C 	0.89885 0.20496 0.91351 -0.03700
H 	H 	0.90097 0.22871 0.88174 0.03600
C 	C 	0.03720 0.98342 0.99333 -0.07400
C 	C 	0.97162 0.95108 0.99260 0.02500
C 	C 	0.94593 0.98510 0.99554 -0.07400
H 	H 	0.08284 0.13548 0.00433 0.05000
H 	H 	0.05690 0.95693 0.99074 0.05100
H 	H 	0.89498 0.95986 0.99431 0.05200
C 	C 	0.89043 0.91994 0.44366 -0.05800
C 	C 	0.92283 0.89225 0.44491 0.01000
C 	C 	0.98881 0.93012 0.44507 -0.05200
H 	H 	0.83946 0.89089 0.44368 0.04600
H 	H 	0.01386 0.90880 0.44540 0.04500
Cu	Cu	0.65700 0.25985 0.00486 0.92900
Cu	Cu	0.69635 0.26007 0.89153 0.87300
Cu	Cu	0.68078 0.35635 0.93686 0.90000
Cu	Cu	0.65717 0.37651 0.04193 0.89400
C 	C 	0.68207 0.30833 0.11315 0.30100
O 	O 	0.56478 0.22099 0.01067 -0.35100
C 	C 	0.65680 0.31336 0.82403 0.30000
O 	O 	0.70584 0.35829 0.00763 -0.64200
O 	O 	0.64009 0.26328 0.93146 -0.63900
O 	O 	0.69775 0.21559 0.99775 -0.35900
O 	O 	0.76128 0.28065 0.94606 -0.43200
O 	O 	0.65288 0.33431 0.10184 -0.38000
O 	O 	0.72658 0.44781 0.94602 -0.36900
C 	C 	0.72614 0.48356 0.98428 0.28300
C 	C 	0.53670 0.24587 0.99364 0.27500
O 	O 	0.57167 0.30467 0.98569 -0.38800
O 	O 	0.68822 0.45806 0.01810 -0.39200
O 	O 	0.68649 0.27352 0.07707 -0.34800
C 	C 	0.74888 0.24010 0.97672 0.27800
O 	O 	0.66428 0.35460 0.86239 -0.36400
O 	O 	0.65110 0.26175 0.83200 -0.41500
H 	H 	0.75257 0.38721 0.02098 0.16800
H 	H 	0.59455 0.23528 0.91419 0.17700
Cu	Cu	0.71931 0.31715 0.43225 0.92800
Cu	Cu	0.72487 0.28745 0.54869 0.87300
Cu	Cu	0.62074 0.29101 0.49969 0.90000
Cu	Cu	0.59305 0.30139 0.38893 0.89600
C 	C 	0.67812 0.29739 0.32366 0.30400
O 	O 	0.75571 0.40736 0.42323 -0.34900
C 	C 	0.66611 0.32297 0.61284 0.29900
O 	O 	0.61968 0.26347 0.42990 -0.63800
O 	O 	0.71511 0.33691 0.50490 -0.64000
O 	O 	0.76703 0.28006 0.44198 -0.36400
O 	O 	0.70563 0.22048 0.49731 -0.43300
O 	O 	0.62211 0.28563 0.32647 -0.38100
O 	O 	0.52842 0.23992 0.49076 -0.36700
C 	C 	0.49114 0.23709 0.45165 0.28000
C 	C 	0.72387 0.43104 0.42888 0.28100
O 	O 	0.66487 0.39480 0.43645 -0.38500
O 	O 	0.51553 0.27553 0.41821 -0.38800
O 	O 	0.70776 0.28786 0.36033 -0.35600
C 	C 	0.74544 0.23173 0.46603 0.27900
O 	O 	0.62245 0.31033 0.57383 -0.36300
O 	O 	0.72027 0.33355 0.60552 -0.41500
H 	H 	0.59443 0.21660 0.41941 0.16900
H 	H 	0.74049 0.38293 0.51982 0.17500
C 	C 	0.59951 0.27325 0.73314 -0.02600
C 	C 	0.65105 0.32328 0.77080 -0.08000
C 	C 	0.70155 0.37864 0.75587 0.08900
C 	C 	0.70323 0.38054 0.70347 -0.02600
C 	C 	0.65509 0.32758 0.66584 -0.08100
C 	C 	0.60130 0.27505 0.68075 0.08800
N 	N 	0.55008 0.22186 0.64289 -0.01800
H 	H 	0.55958 0.23138 0.74447 0.05800
H 	H 	0.74375 0.42191 0.69215 0.05800
N 	N 	0.75293 0.43167 0.79376 -0.01900
O 	O 	0.55844 0.18312 0.61772 -0.13100
O 	O 	0.49357 0.20892 0.63696 -0.11200
O 	O 	0.79415 0.42720 0.82015 -0.13000
O 	O 	0.76179 0.48609 0.79857 -0.11200
C 	C 	0.73243 0.36180 0.20432 -0.02700
C 	C 	0.69536 0.30521 0.16744 -0.07700
C 	C 	0.66355 0.24594 0.18370 0.09700
C 	C 	0.66471 0.24399 0.23631 -0.02600
C 	C 	0.69605 0.30051 0.27274 -0.07300
C 	C 	0.73321 0.35972 0.25692 0.08800
N 	N 	0.77014 0.41790 0.29409 -0.02400
H 	H 	0.75873 0.40750 0.19208 0.05100
H 	H 	0.63716 0.19829 0.24848 0.06100
N 	N 	0.62631 0.18759 0.14683 -0.01900
O 	O 	0.81453 0.42856 0.32989 -0.10100
O 	O 	0.76294 0.46227 0.28969 -0.11900
O 	O 	0.64561 0.15209 0.14138 -0.10600
O 	O 	0.57074 0.16751 0.12174 -0.10600
C 	C 	0.73341 0.60224 0.35878 -0.03200
C 	C 	0.75958 0.66680 0.36212 -0.05400
C 	C 	0.80969 0.71275 0.40278 0.04300
C 	C 	0.83343 0.69356 0.44052 -0.02800
C 	C 	0.80771 0.62868 0.43674 0.00500
C 	C 	0.75728 0.58284 0.39589 0.01200
C 	C 	0.83238 0.60964 0.47387 0.01100
C 	C 	0.88205 0.65550 0.51481 -0.03300
C 	C 	0.90719 0.71987 0.51883 -0.05400
C 	C 	0.88333 0.73928 0.48172 0.04300
C 	C 	0.90967 0.80397 0.48471 -0.07800
C 	C 	0.88795 0.82352 0.44598 0.03000
C 	C 	0.83722 0.77775 0.40560 -0.07800
C 	C 	0.73101 0.51817 0.39289 -0.01500
C 	C 	0.75542 0.49917 0.42986 -0.05500
C 	C 	0.80652 0.54490 0.46991 -0.01800
H 	H 	0.69469 0.56737 0.32723 0.04000
H 	H 	0.74091 0.68101 0.33300 0.04300
H 	H 	0.90118 0.64137 0.54363 0.03900
H 	H 	0.94554 0.75467 0.55063 0.04400
H 	H 	0.94827 0.83935 0.51621 0.05000
H 	H 	0.82056 0.79292 0.37574 0.05000
H 	H 	0.69138 0.48256 0.36210 0.04100
H 	H 	0.82490 0.52989 0.49857 0.03800
C 	C 	0.84267 0.14868 0.36980 -0.03400
C 	C 	0.81727 0.15242 0.41307 0.01100
C 	C 	0.79429 0.18908 0.41743 -0.02100
C 	C 	0.76934 0.19292 0.46106 -0.06600
C 	C 	0.76704 0.15955 0.50023 -0.02500
H 	H 	0.84433 0.17370 0.33913 0.04300
H 	H 	0.86369 0.99310 0.51668 0.04900
H 	H 	0.79553 0.21423 0.38696 0.05400
H 	H 	0.74825 0.16278 0.53407 0.03100
C 	C 	0.33176 0.15213 0.49595 0.01700
C 	C 	0.28975 0.13362 0.44912 0.00100
C 	C 	0.31366 0.14738 0.40302 0.01200
C 	C 	0.37938 0.17978 0.40397 -0.02600
C 	C 	0.42159 0.19934 0.45070 -0.05500
C 	C 	0.39754 0.18492 0.49656 -0.02600
H 	H 	0.28948 0.13930 0.32094 0.03700
H 	H 	0.39778 0.19005 0.36848 0.03900
H 	H 	0.43002 0.20015 0.53268 0.06600
C 	C 	0.82325 0.70084 0.07743 -0.03600
C 	C 	0.85610 0.76622 0.07826 -0.05300
C 	C 	0.87527 0.79116 0.03353 0.03700
C 	C 	0.86080 0.74993 0.98747 -0.02400
C 	C 	0.82757 0.68409 0.98660 0.00200
C 	C 	0.80898 0.65953 0.03181 0.01100
C 	C 	0.81332 0.64291 0.94062 0.01800
C 	C 	0.83227 0.66783 0.89582 -0.03600
C 	C 	0.86558 0.73331 0.89674 -0.05000
C 	C 	0.88023 0.77467 0.94244 0.04000
C 	C 	0.91489 0.84054 0.94392 -0.07500
C 	C 	0.93018 0.88163 0.98998 0.02700
C 	C 	0.90966 0.85687 0.03447 -0.07800
C 	C 	0.77650 0.59405 0.03093 -0.02900
C 	C 	0.76177 0.55272 0.98507 -0.05200
C 	C 	0.78035 0.57736 0.94000 -0.02700
H 	H 	0.80900 0.68238 0.11233 0.03800
H 	H 	0.86691 0.79748 0.11380 0.04200
H 	H 	0.82145 0.63657 0.86027 0.05100
H 	H 	0.88017 0.75183 0.86192 0.04500
H 	H 	0.93083 0.86000 0.90965 0.05100
H 	H 	0.92172 0.88893 0.06994 0.04900
H 	H 	0.76291 0.57527 0.06586 0.04200
H 	H 	0.76870 0.54558 0.90450 0.06700
C 	C 	0.89413 0.14309 0.99548 -0.02200
C 	C 	0.85990 0.16894 0.99191 0.00200
C 	C 	0.82283 0.16324 0.02923 0.01200
C 	C 	0.86195 0.19958 0.95058 0.01100
C 	C 	0.78733 0.18749 0.02466 -0.02700
C 	C 	0.78845 0.21711 0.98295 -0.06100
C 	C 	0.82639 0.22363 0.94634 -0.02700
H 	H 	0.75885 0.18319 0.05333 0.06000
H 	H 	0.82727 0.24635 0.91409 0.03200
C 	C 	0.26869 0.17630 0.91949 -0.05200
C 	C 	0.33235 0.20125 0.91752 -0.03600
C 	C 	0.36780 0.19331 0.95472 0.01300
C 	C 	0.33898 0.15988 0.99412 0.00200
C 	C 	0.27511 0.13530 0.99639 -0.02400
C 	C 	0.23974 0.14327 0.95878 0.03900
C 	C 	0.37413 0.15140 0.03147 0.01300
C 	C 	0.43806 0.17694 0.02958 -0.03000
C 	C 	0.46744 0.21184 0.99124 -0.05500
C 	C 	0.43198 0.21918 0.95347 -0.02700
H 	H 	0.24196 0.18270 0.89042 0.04300
H 	H 	0.35404 0.22681 0.88707 0.04000
H 	H 	0.46559 0.17161 0.05888 0.06000
H 	H 	0.45462 0.24571 0.92367 0.04300
