data_crystal

_cell_length_a 39.80221
_cell_length_b 36.97738
_cell_length_c 21.93149
_cell_angle_alpha 89.95794
_cell_angle_beta  89.94508
_cell_angle_gamma 87.38550

_symmetry_space_group_name_	'P 1'
_symmetry_space_group_name_H-M	'P 1'

loop_
_symmetry_equiv_pos_as_xyz
  x,y,z

loop_
_atom_site_label
_atom_site_type_symbol
_atom_site_fract_x
_atom_site_fract_y
_atom_site_fract_z
_atom_site_charge
C 	C 	0.44323 0.55814 0.00123 -0.02600
C 	C 	0.47241 0.57748 0.00598 -0.03200
C 	C 	0.44464 0.52225 0.97926 -0.00700
C 	C 	0.47627 0.50496 0.96629 -0.00300
C 	C 	0.50593 0.52437 0.97226 -0.00800
C 	C 	0.50391 0.56117 0.99050 0.00200
C 	C 	0.47834 0.46819 0.94777 0.00500
C 	C 	0.50976 0.45226 0.93070 -0.04100
C 	C 	0.53758 0.50687 0.96049 0.00500
C 	C 	0.53373 0.58055 0.99477 -0.02300
C 	C 	0.56500 0.56230 0.98688 -0.04400
C 	C 	0.56726 0.52547 0.97181 -0.00900
C 	C 	0.41502 0.50299 0.97105 -0.00200
C 	C 	0.41740 0.46629 0.95522 -0.05000
C 	C 	0.44867 0.44840 0.94526 -0.00900
C 	C 	0.53281 0.62019 0.00524 0.03600
C 	C 	0.52358 0.64399 0.95760 -0.06100
C 	C 	0.52982 0.68083 0.96230 -0.04700
C 	C 	0.54614 0.69391 0.01390 0.01300
C 	C 	0.55309 0.67068 0.06333 -0.03800
C 	C 	0.54642 0.63395 0.05905 -0.05100
C 	C 	0.60066 0.50620 0.97316 0.00000
C 	C 	0.60746 0.47884 0.01645 -0.03200
C 	C 	0.64001 0.46354 0.02258 -0.03300
C 	C 	0.62675 0.51811 0.93619 -0.04400
C 	C 	0.65953 0.50385 0.94410 -0.04200
C 	C 	0.66623 0.47626 0.98687 -0.00200
C 	C 	0.38123 0.52082 0.97799 -0.00300
C 	C 	0.35907 0.50835 0.02226 -0.03100
C 	C 	0.32567 0.52156 0.02353 -0.03200
C 	C 	0.31437 0.54791 0.98142 -0.00300
C 	C 	0.33700 0.56207 0.93967 -0.04200
C 	C 	0.37005 0.54776 0.93663 -0.04300
C 	C 	0.44983 0.40852 0.93634 0.01400
C 	C 	0.43111 0.39357 0.88910 -0.04500
C 	C 	0.42461 0.35672 0.88955 -0.04100
C 	C 	0.43827 0.33402 0.93540 0.00600
C 	C 	0.45897 0.34847 0.98020 -0.05100
C 	C 	0.46436 0.38561 0.98117 -0.05500
C 	C 	0.53900 0.47139 0.93683 -0.04300
H 	H 	0.51285 0.63371 0.91605 0.04300
H 	H 	0.52331 0.69886 0.92476 0.03800
H 	H 	0.56506 0.68073 0.10389 0.03800
H 	H 	0.55335 0.61587 0.09630 0.04300
H 	H 	0.32886 0.58369 0.90904 0.03500
H 	H 	0.38695 0.55750 0.90218 0.03800
H 	H 	0.30846 0.51104 0.05672 0.04100
H 	H 	0.36751 0.48768 0.05452 0.04000
H 	H 	0.41990 0.41093 0.85411 0.03900
H 	H 	0.40828 0.34598 0.85517 0.03800
H 	H 	0.47865 0.39679 0.01810 0.05000
H 	H 	0.46963 0.33119 0.01583 0.04600
H 	H 	0.58763 0.46989 0.04597 0.04100
H 	H 	0.64506 0.44248 0.05614 0.03800
H 	H 	0.62183 0.53945 0.90306 0.03600
H 	H 	0.67985 0.51492 0.91826 0.03500
H 	H 	0.41963 0.57106 0.01575 0.04100
H 	H 	0.47043 0.60492 0.02321 0.04200
H 	H 	0.58783 0.57682 0.99322 0.03700
H 	H 	0.56268 0.45870 0.92209 0.03800
H 	H 	0.51164 0.42526 0.91159 0.03800
H 	H 	0.39464 0.45137 0.95139 0.04200
Zn	Zn	0.36626 0.12834 0.99299 1.21800
C 	C 	0.30755 0.08505 0.00500 0.33200
O 	O 	0.38621 0.12859 0.07539 -0.44500
O 	O 	0.32811 0.05737 0.99217 -0.46000
O 	O 	0.36125 0.07808 0.10769 -0.47800
C 	C 	0.39161 0.07094 0.91567 0.29700
O 	O 	0.37086 0.09957 0.91818 -0.43200
O 	O 	0.40303 0.05594 0.96616 -0.49800
C 	C 	0.37705 0.10749 0.12001 0.28800
O 	O 	0.41262 0.16088 0.95919 -0.32700
Zn	Zn	0.37372 0.05033 0.03575 1.17700
O 	O 	0.31948 0.11724 0.01417 -0.42900
C 	C 	0.39158 0.18874 0.95853 0.28200
O 	O 	0.36082 0.18214 0.97242 -0.39300
C 	C 	0.48298 0.03337 0.45577 0.01300
C 	C 	0.51218 0.01042 0.44678 0.01300
C 	C 	0.46026 0.02579 0.50266 -0.05500
C 	C 	0.46673 0.99603 0.54154 0.01300
C 	C 	0.51812 0.98005 0.48445 -0.05500
C 	C 	0.49580 0.97294 0.53227 0.01300
H 	H 	0.54016 0.96231 0.47710 0.05100
H 	H 	0.43793 0.04319 0.50933 0.05200
C 	C 	0.50184 0.94320 0.57186 -0.01600
C 	C 	0.48113 0.93759 0.62257 0.00700
C 	C 	0.49793 0.91757 0.67018 -0.03800
C 	C 	0.53179 0.90860 0.65737 -0.01900
S 	S 	0.53996 0.92539 0.58858 0.01200
H 	H 	0.48738 0.91428 0.71518 0.04800
C 	C 	0.44478 0.98857 0.59008 -0.01700
C 	C 	0.45234 0.96048 0.63172 0.00700
C 	C 	0.43633 0.96602 0.68937 -0.03800
C 	C 	0.41709 0.99866 0.69296 -0.02000
S 	S 	0.42055 0.01978 0.62619 0.01600
H 	H 	0.44109 0.94877 0.72852 0.04800
C 	C 	0.50037 0.07191 0.37112 0.00600
C 	C 	0.47809 0.06442 0.41869 -0.01600
S 	S 	0.44062 0.08340 0.40056 0.01300
C 	C 	0.45123 0.10325 0.33534 -0.02000
C 	C 	0.48527 0.09409 0.32450 -0.03900
C 	C 	0.53554 0.01968 0.40159 -0.01600
C 	C 	0.52946 0.04945 0.36279 0.00700
C 	C 	0.54837 0.04695 0.30761 -0.03900
C 	C 	0.56866 0.01511 0.30373 -0.01900
S 	S 	0.56207 0.99045 0.36602 0.01200
H 	H 	0.54488 0.06552 0.26979 0.04600
H 	H 	0.49715 0.09901 0.28110 0.04600
Zn	Zn	0.62194 0.89988 0.99067 1.21500
C 	C 	0.68613 0.93218 0.97017 0.31300
O 	O 	0.59966 0.92839 0.05660 -0.44600
O 	O 	0.67035 0.95467 0.93243 -0.45100
O 	O 	0.63011 0.97813 0.04092 -0.47500
C 	C 	0.60570 0.92313 0.86928 0.30100
O 	O 	0.62368 0.89949 0.90164 -0.44600
O 	O 	0.59700 0.95493 0.89214 -0.49500
C 	C 	0.61143 0.95883 0.07652 0.28700
O 	O 	0.57367 0.86526 0.98101 -0.33800
Zn	Zn	0.62384 0.97794 0.95340 1.17000
O 	O 	0.66901 0.91159 0.00667 -0.43000
C 	C 	0.59137 0.84007 0.00914 0.29200
O 	O 	0.62184 0.84804 0.02255 -0.39100
Zn	Zn	0.11155 0.60431 0.03021 1.22300
C 	C 	0.06005 0.66137 0.02158 0.32300
O 	O 	0.11377 0.58955 0.11628 -0.44700
O 	O 	0.03863 0.63589 0.01336 -0.44700
O 	O 	0.06074 0.61089 0.13776 -0.47800
C 	C 	0.06961 0.56260 0.95462 0.28400
O 	O 	0.08930 0.59012 0.95522 -0.44100
O 	O 	0.05294 0.55417 0.00388 -0.48000
C 	C 	0.09046 0.59879 0.15641 0.28700
O 	O 	0.15310 0.55836 0.00916 -0.32200
Zn	Zn	0.04066 0.58974 0.06618 1.17200
O 	O 	0.09082 0.65301 0.03981 -0.43800
C 	C 	0.17321 0.58486 0.00437 0.30100
O 	O 	0.15946 0.61695 0.01087 -0.39300
C 	C 	0.01781 0.43756 0.46595 0.01300
C 	C 	0.04559 0.45931 0.47841 0.01200
C 	C 	0.00000 0.42250 0.51426 -0.05500
C 	C 	0.01135 0.42611 0.57443 0.01300
C 	C 	0.05527 0.46534 0.53907 -0.05500
C 	C 	0.03923 0.44764 0.58701 0.01300
H 	H 	0.07713 0.48086 0.54844 0.05100
H 	H 	0.97944 0.40513 0.50462 0.05100
C 	C 	0.05303 0.44687 0.64629 -0.01600
C 	C 	0.03971 0.42575 0.69288 0.00600
C 	C 	0.04803 0.43800 0.75227 -0.03900
C 	C 	0.06668 0.46922 0.75184 -0.02000
S 	S 	0.07213 0.48115 0.67908 0.01300
H 	H 	0.03830 0.42663 0.79378 0.04500
C 	C 	0.99835 0.40491 0.62154 -0.01600
C 	C 	0.01209 0.40459 0.68037 0.00600
C 	C 	0.98912 0.39324 0.72562 -0.03800
C 	C 	0.95737 0.38622 0.70232 -0.02100
S 	S 	0.95819 0.39438 0.62755 0.01000
H 	H 	0.99382 0.39488 0.77407 0.04200
C 	C 	0.03128 0.43932 0.35671 0.00700
C 	C 	0.01146 0.42758 0.40509 -0.01600
S 	S 	0.97367 0.41880 0.37716 0.01300
C 	C 	0.98159 0.42704 0.30382 -0.01900
C 	C 	0.01442 0.43887 0.29947 -0.03800
C 	C 	0.06586 0.47000 0.42936 -0.01500
C 	C 	0.05909 0.46013 0.36908 0.00700
C 	C 	0.07452 0.48247 0.32543 -0.03700
C 	C 	0.09217 0.51033 0.35174 -0.01800
S 	S 	0.08776 0.50744 0.42734 0.01000
H 	H 	0.06967 0.48123 0.27698 0.04500
H 	H 	0.02445 0.44983 0.25789 0.04600
Zn	Zn	0.86769 0.39617 0.02495 1.22300
C 	C 	0.80697 0.44111 0.01528 0.32100
O 	O 	0.88994 0.39755 0.94566 -0.47200
O 	O 	0.82506 0.46946 0.02474 -0.45100
O 	O 	0.86475 0.45001 0.91208 -0.48100
C 	C 	0.89115 0.44659 0.10964 0.29500
O 	O 	0.86868 0.42225 0.10138 -0.45000
O 	O 	0.89972 0.46732 0.06401 -0.48800
C 	C 	0.87901 0.41810 0.90060 0.29400
O 	O 	0.91403 0.36057 0.06162 -0.32400
Zn	Zn	0.87280 0.47356 0.98978 1.16600
O 	O 	0.82163 0.40976 0.00065 -0.44200
C 	C 	0.89445 0.33364 0.05662 0.28700
O 	O 	0.86413 0.34214 0.03882 -0.38700
C 	C 	0.93563 0.01988 0.02535 -0.03900
C 	C 	0.95261 0.05177 0.03206 -0.04300
C 	C 	0.95307 0.98758 0.00779 0.01200
C 	C 	0.98851 0.98715 0.00106 0.01100
C 	C 	0.00567 0.01968 0.00688 -0.01800
C 	C 	0.98737 0.05247 0.01978 0.01500
C 	C 	0.00678 0.95422 0.98897 -0.01400
C 	C 	0.04197 0.95434 0.98169 -0.02900
C 	C 	0.04114 0.01930 0.00055 0.03000
C 	C 	0.00430 0.08532 0.02097 -0.01500
C 	C 	0.03925 0.08483 0.01367 -0.03900
C 	C 	0.05795 0.05221 0.00561 -0.01900
C 	C 	0.93592 0.95532 0.99840 -0.01600
C 	C 	0.95423 0.92284 0.98728 -0.05100
C 	C 	0.98939 0.92175 0.98420 -0.00200
C 	C 	0.98570 0.12058 0.02793 0.02400
C 	C 	0.96354 0.13321 0.98214 -0.05600
C 	C 	0.94603 0.16654 0.98870 -0.05400
C 	C 	0.95127 0.18802 0.04024 0.01900
C 	C 	0.97453 0.17607 0.08476 -0.04300
C 	C 	0.99115 0.14216 0.07925 -0.04600
C 	C 	0.09515 0.05300 0.00597 0.02800
C 	C 	0.11182 0.06251 0.05959 -0.04800
C 	C 	0.14618 0.06869 0.05840 -0.03900
C 	C 	0.11340 0.04885 0.95139 -0.05800
C 	C 	0.14808 0.05359 0.95078 -0.04800
C 	C 	0.16438 0.06485 0.00379 0.01300
C 	C 	0.89873 0.95511 0.99869 0.00100
C 	C 	0.88206 0.93732 0.04561 -0.03400
C 	C 	0.84733 0.93344 0.04250 -0.03200
C 	C 	0.82888 0.94802 0.99310 -0.00500
C 	C 	0.84552 0.96588 0.94624 -0.04100
C 	C 	0.88031 0.96941 0.94901 -0.04500
C 	C 	0.00754 0.88607 0.98028 -0.00200
C 	C 	0.00263 0.86370 0.92971 -0.04100
C 	C 	0.01355 0.82729 0.93145 -0.04400
C 	C 	0.03059 0.81330 0.98284 -0.00000
C 	C 	0.03726 0.83620 0.03189 -0.03300
C 	C 	0.02544 0.87232 0.03095 -0.03100
C 	C 	0.05899 0.98621 0.98900 -0.06400
H 	H 	0.95972 0.11704 0.94176 0.04000
H 	H 	0.92879 0.17598 0.95332 0.03600
H 	H 	0.97952 0.19298 0.12374 0.04000
H 	H 	0.00857 0.13281 0.11442 0.04000
H 	H 	0.83150 0.97684 0.90759 0.03600
H 	H 	0.89303 0.98278 0.91221 0.03800
H 	H 	0.83473 0.91924 0.07851 0.03800
H 	H 	0.89613 0.92588 0.08382 0.03900
H 	H 	0.98885 0.87410 0.89037 0.03700
H 	H 	0.00801 0.80971 0.89361 0.03700
H 	H 	0.02916 0.88930 0.07039 0.04000
H 	H 	0.05034 0.82557 0.07182 0.03900
H 	H 	0.09792 0.06605 0.10182 0.04100
H 	H 	0.15865 0.07670 0.09981 0.03800
H 	H 	0.10071 0.04198 0.90957 0.04100
H 	H 	0.16212 0.04950 0.90881 0.03800
H 	H 	0.90894 0.02033 0.03507 0.04100
H 	H 	0.93864 0.07580 0.04771 0.04100
H 	H 	0.05210 0.11008 0.01513 0.04200
H 	H 	0.08610 0.98496 0.98508 0.04300
H 	H 	0.05636 0.92978 0.96995 0.03500
H 	H 	0.94101 0.89801 0.98200 0.04200
C 	C 	0.93542 0.22481 0.04387 -0.00100
C 	C 	0.91109 0.23427 0.08909 0.01100
C 	C 	0.89857 0.27032 0.09327 -0.01100
C 	C 	0.90836 0.29630 0.05112 -0.09200
C 	C 	0.93028 0.28595 0.00262 0.08100
C 	C 	0.94479 0.25076 0.00128 -0.06800
H 	H 	0.88063 0.27796 0.12877 0.03800
H 	H 	0.96291 0.24327 0.96599 0.04000
C 	C 	0.89655 0.20601 0.13063 -0.09700
C 	C 	0.93735 0.31154 0.95053 -0.12800
C 	C 	0.86180 0.19479 0.10909 -0.02200
H 	H 	0.84472 0.21912 0.10241 0.03300
H 	H 	0.85064 0.17805 0.14533 0.02700
C 	C 	0.97081 0.32983 0.95983 -0.02100
H 	H 	0.99178 0.30890 0.96082 0.02900
H 	H 	0.97063 0.34450 0.00402 0.05500
H 	H 	0.91341 0.18156 0.13629 0.05000
H 	H 	0.91652 0.33216 0.94452 0.07400
C 	C 	0.86354 0.17269 0.05025 -0.15700
C 	C 	0.97738 0.35663 0.90860 -0.16200
H 	H 	0.88130 0.14882 0.05535 0.06000
H 	H 	0.83823 0.16290 0.03964 0.05600
H 	H 	0.87159 0.18965 0.01158 0.06600
H 	H 	0.89371 0.21770 0.17715 0.04700
H 	H 	0.97771 0.34273 0.86369 0.06800
H 	H 	0.00216 0.36858 0.91574 0.05900
H 	H 	0.95767 0.37887 0.90831 0.07400
H 	H 	0.93858 0.29598 0.90711 0.05900
C 	C 	0.92706 0.39235 0.73911 0.11100
N 	N 	0.91487 0.42679 0.74878 -0.08700
N 	N 	0.89609 0.43471 0.79775 -0.07000
C 	C 	0.88896 0.40839 0.83827 0.02200
N 	N 	0.89825 0.37349 0.82518 -0.06700
N 	N 	0.91714 0.36560 0.77641 -0.09000
C 	C 	0.95521 0.43603 0.25873 0.11400
N 	N 	0.96001 0.46185 0.21594 -0.09100
N 	N 	0.93826 0.46681 0.17025 -0.06800
C 	C 	0.91118 0.44597 0.16579 0.02700
N 	N 	0.90573 0.42102 0.20978 -0.06000
N 	N 	0.92740 0.41619 0.25572 -0.08400
C 	C 	0.05015 0.69930 0.00799 -0.08900
C 	C 	0.02325 0.71762 0.03935 0.06800
C 	C 	0.01678 0.75470 0.02881 -0.06500
C 	C 	0.03705 0.77391 0.98917 -0.00900
C 	C 	0.06382 0.75565 0.95773 0.01200
C 	C 	0.06988 0.71839 0.96709 -0.02100
H 	H 	0.99643 0.76894 0.05305 0.04700
H 	H 	0.09072 0.70439 0.94384 0.04000
C 	C 	0.00222 0.69876 0.08667 -0.10800
C 	C 	0.08784 0.77601 0.91813 -0.09800
C 	C 	0.96585 0.69435 0.06523 -0.03300
H 	H 	0.95441 0.72081 0.05001 0.03300
H 	H 	0.95078 0.68515 0.10453 0.02500
C 	C 	0.11605 0.79127 0.95668 -0.02300
H 	H 	0.13054 0.76869 0.97954 0.03200
H 	H 	0.10520 0.80959 0.99245 0.03100
H 	H 	0.01342 0.67222 0.10160 0.04400
H 	H 	0.07434 0.79815 0.89261 0.05000
C 	C 	0.96334 0.66675 0.01384 -0.11600
C 	C 	0.14007 0.81244 0.91751 -0.15800
H 	H 	0.97241 0.63950 0.02970 0.02600
H 	H 	0.93665 0.66523 0.99979 0.03300
H 	H 	0.97818 0.67484 0.97357 0.05300
H 	H 	0.00132 0.71570 0.12857 0.05000
H 	H 	0.15189 0.79464 0.88195 0.05700
H 	H 	0.16022 0.82293 0.94669 0.05400
H 	H 	0.12638 0.83575 0.89530 0.05700
H 	H 	0.09912 0.75747 0.88296 0.04800
C 	C 	0.06600 0.49518 0.80273 0.11300
N 	N 	0.04575 0.49003 0.85152 -0.09000
N 	N 	0.04642 0.51212 0.89934 -0.07000
C 	C 	0.06741 0.53998 0.89997 0.03000
N 	N 	0.08747 0.54545 0.85094 -0.06100
N 	N 	0.08676 0.52334 0.80292 -0.08500
C 	C 	0.09642 0.54447 0.31971 0.11100
N 	N 	0.06878 0.56611 0.30726 -0.08700
N 	N 	0.06803 0.58723 0.25796 -0.07000
C 	C 	0.09502 0.58746 0.22010 0.02100
N 	N 	0.12403 0.56954 0.23709 -0.06500
N 	N 	0.12472 0.54836 0.28628 -0.08700
C 	C 	0.72263 0.93432 0.97835 -0.12100
C 	C 	0.74565 0.91162 0.94513 0.08100
C 	C 	0.78032 0.91624 0.95135 -0.08600
C 	C 	0.79226 0.94335 0.98925 -0.00300
C 	C 	0.76921 0.96595 0.02259 0.01400
C 	C 	0.73458 0.96109 0.01685 0.00500
H 	H 	0.79807 0.89891 0.92604 0.04900
H 	H 	0.71681 0.97880 0.04141 0.03200
C 	C 	0.73377 0.88253 0.90241 -0.12900
C 	C 	0.78102 0.99692 0.06119 -0.10200
C 	C 	0.73861 0.84440 0.92990 -0.00400
H 	H 	0.76484 0.83975 0.94649 0.02300
H 	H 	0.73447 0.82421 0.89346 0.02300
C 	C 	0.78419 0.03126 0.02265 -0.00800
H 	H 	0.75907 0.04011 0.00444 0.02700
H 	H 	0.80132 0.02569 0.98342 0.02100
H 	H 	0.70722 0.88739 0.88793 0.06500
H 	H 	0.80534 0.98952 0.08370 0.05300
C 	C 	0.71411 0.83777 0.98195 -0.18000
C 	C 	0.79797 0.06202 0.06018 -0.16300
H 	H 	0.68774 0.84214 0.96610 0.06800
H 	H 	0.71766 0.80936 0.99796 0.06100
H 	H 	0.71880 0.85601 0.02092 0.08800
H 	H 	0.74877 0.88336 0.85967 0.05400
H 	H 	0.78109 0.06870 0.09936 0.05800
H 	H 	0.79962 0.08650 0.03116 0.05700
H 	H 	0.82354 0.05427 0.07739 0.05900
H 	H 	0.76275 0.00268 0.09876 0.04900
C 	C 	0.55715 0.90650 0.70590 0.11400
N 	N 	0.58001 0.93250 0.71029 -0.08500
N 	N 	0.59767 0.93608 0.76131 -0.06800
C 	C 	0.59343 0.91338 0.80903 0.03000
N 	N 	0.57209 0.88599 0.80329 -0.06200
N 	N 	0.55401 0.88275 0.75259 -0.08500
C 	C 	0.60152 0.97288 0.13671 0.02600
N 	N 	0.58709 0.95118 0.17827 -0.06400
N 	N 	0.57720 0.96444 0.23225 -0.08600
C 	C 	0.58111 0.99985 0.24577 0.11200
N 	N 	0.59562 0.02145 0.20428 -0.08800
N 	N 	0.60586 0.00811 0.15067 -0.06900
C 	C 	0.27087 0.08029 0.00700 -0.09500
C 	C 	0.25705 0.05120 0.03952 0.07600
C 	C 	0.22235 0.04611 0.03587 -0.08300
C 	C 	0.20103 0.07031 0.00332 0.01700
C 	C 	0.21450 0.10061 0.97406 -0.00800
C 	C 	0.24940 0.10492 0.97542 -0.01200
H 	H 	0.21166 0.02403 0.06075 0.05100
H 	H 	0.25984 0.12777 0.95222 0.04000
C 	C 	0.27800 0.02794 0.08390 -0.11000
C 	C 	0.19184 0.13021 0.94602 -0.08500
C 	C 	0.28049 0.98772 0.06558 -0.03400
H 	H 	0.25503 0.97727 0.05887 0.03400
H 	H 	0.29245 0.97196 0.10359 0.02500
C 	C 	0.17912 0.15728 0.99474 -0.04900
H 	H 	0.20085 0.17030 0.01602 0.04700
H 	H 	0.16539 0.14305 0.03105 0.04600
H 	H 	0.30355 0.03777 0.09149 0.04100
H 	H 	0.17030 0.11869 0.92193 0.04600
C 	C 	0.30138 0.98069 0.00800 -0.11400
C 	C 	0.15550 0.18666 0.96739 -0.16300
H 	H 	0.32781 0.98791 0.01572 0.02000
H 	H 	0.30136 0.95147 0.99638 0.03700
H 	H 	0.29062 0.99639 0.96891 0.05500
H 	H 	0.26557 0.02988 0.12928 0.05100
H 	H 	0.16869 0.20191 0.93162 0.05800
H 	H 	0.14696 0.20588 0.00370 0.06600
H 	H 	0.13308 0.17444 0.94721 0.05700
H 	H 	0.20594 0.14488 0.91063 0.04600
C 	C 	0.39976 0.05360 0.85704 0.02700
N 	N 	0.38603 0.06684 0.80444 -0.05900
N 	N 	0.39167 0.04940 0.75191 -0.08400
C 	C 	0.41097 0.01814 0.75070 0.11400
N 	N 	0.42471 0.00504 0.80331 -0.08900
N 	N 	0.41923 0.02253 0.85564 -0.06800
C 	C 	0.42723 0.11008 0.28542 0.11200
N 	N 	0.40064 0.08872 0.27859 -0.08700
N 	N 	0.38288 0.08974 0.22708 -0.06700
C 	C 	0.39106 0.11234 0.18113 0.02100
N 	N 	0.41636 0.13524 0.18948 -0.06600
N 	N 	0.43430 0.13400 0.24077 -0.08900
C 	C 	0.40327 0.22606 0.95334 -0.09200
C 	C 	0.39588 0.25247 0.99898 0.06800
C 	C 	0.40668 0.28781 0.99096 -0.09500
C 	C 	0.42717 0.29643 0.94149 0.00600
C 	C 	0.43687 0.26928 0.89863 0.00600
C 	C 	0.42411 0.23458 0.90424 -0.01200
H 	H 	0.40010 0.30842 0.02462 0.06000
H 	H 	0.43113 0.21387 0.87103 0.04200
C 	C 	0.37960 0.24268 0.05914 -0.11100
C 	C 	0.46332 0.27577 0.85055 -0.09500
C 	C 	0.40392 0.22107 0.10144 -0.01800
H 	H 	0.41450 0.19649 0.07807 0.05200
H 	H 	0.38960 0.21193 0.14171 0.04100
C 	C 	0.49879 0.27088 0.87756 -0.02400
H 	H 	0.50277 0.24283 0.89526 0.03200
H 	H 	0.50175 0.29000 0.91607 0.03100
H 	H 	0.37018 0.26756 0.08338 0.05300
H 	H 	0.45968 0.30316 0.83027 0.04900
C 	C 	0.43277 0.24351 0.12384 -0.15800
C 	C 	0.52572 0.27777 0.82986 -0.15800
H 	H 	0.42285 0.26875 0.14618 0.06100
H 	H 	0.44803 0.22752 0.15756 0.06600
H 	H 	0.44939 0.25052 0.08529 0.06600
H 	H 	0.35681 0.22721 0.05138 0.07100
H 	H 	0.52389 0.25854 0.79122 0.05700
H 	H 	0.55101 0.27388 0.85080 0.05400
H 	H 	0.52281 0.30596 0.81244 0.05700
H 	H 	0.46077 0.25640 0.81220 0.04800
C 	C 	0.27878 0.56068 0.98143 -0.00200
C 	C 	0.25513 0.54522 0.94208 0.00600
C 	C 	0.22080 0.55453 0.94940 -0.00500
C 	C 	0.20967 0.57847 0.99540 -0.11800
C 	C 	0.23337 0.59381 0.03494 0.08900
C 	C 	0.26776 0.58544 0.02624 -0.07500
H 	H 	0.20255 0.54224 0.92018 0.04100
H 	H 	0.28599 0.59672 0.05676 0.05000
C 	C 	0.26576 0.51727 0.89409 -0.09600
C 	C 	0.22238 0.61591 0.09041 -0.12800
C 	C 	0.25939 0.53105 0.82874 -0.02300
H 	H 	0.23270 0.54060 0.82306 0.03400
H 	H 	0.26409 0.50810 0.79667 0.02900
C 	C 	0.21125 0.59139 0.14252 -0.01000
H 	H 	0.23270 0.57288 0.15643 0.03200
H 	H 	0.19038 0.57461 0.12732 0.04600
H 	H 	0.29241 0.50745 0.89825 0.05100
H 	H 	0.20220 0.63635 0.07870 0.07400
C 	C 	0.28225 0.56140 0.81096 -0.15600
C 	C 	0.19932 0.61353 0.19780 -0.16500
H 	H 	0.30906 0.55191 0.81427 0.05900
H 	H 	0.27701 0.56969 0.76311 0.05800
H 	H 	0.27754 0.58536 0.84078 0.06200
H 	H 	0.25077 0.49297 0.90117 0.04800
H 	H 	0.21959 0.63075 0.21425 0.06200
H 	H 	0.19251 0.59500 0.23523 0.07400
H 	H 	0.17680 0.63096 0.18587 0.07200
H 	H 	0.24363 0.63186 0.10681 0.05400
C 	C 	0.77009 0.44560 0.01296 -0.09600
C 	C 	0.75164 0.46346 0.06022 0.07300
C 	C 	0.71753 0.47311 0.05093 -0.06900
C 	C 	0.70112 0.46271 0.99766 -0.00900
C 	C 	0.71852 0.44045 0.95446 0.01000
C 	C 	0.75314 0.43300 0.96170 -0.02400
H 	H 	0.70359 0.48830 0.08570 0.04700
H 	H 	0.76697 0.41759 0.92705 0.04300
C 	C 	0.76668 0.46860 0.12309 -0.12400
C 	C 	0.70038 0.42344 0.90169 -0.09800
C 	C 	0.75804 0.43795 0.16697 -0.00900
H 	H 	0.73043 0.43451 0.16748 0.02700
H 	H 	0.76557 0.44566 0.21382 0.02700
C 	C 	0.70748 0.44277 0.84138 -0.02400
H 	H 	0.73481 0.44018 0.83082 0.03100
H 	H 	0.70018 0.47201 0.84503 0.03000
H 	H 	0.79429 0.47125 0.12208 0.06900
H 	H 	0.67283 0.42328 0.90980 0.04900
C 	C 	0.77620 0.40189 0.15087 -0.16700
C 	C 	0.68805 0.42671 0.78868 -0.15800
H 	H 	0.80377 0.40505 0.14784 0.07300
H 	H 	0.77132 0.38169 0.18691 0.06300
H 	H 	0.76686 0.39142 0.10690 0.07100
H 	H 	0.75632 0.49457 0.14242 0.05200
H 	H 	0.69526 0.39752 0.78313 0.05700
H 	H 	0.69398 0.44103 0.74575 0.05700
H 	H 	0.66055 0.42993 0.79707 0.05700
H 	H 	0.70920 0.39454 0.89788 0.04700
C 	C 	0.58018 0.80261 0.01342 -0.08500
C 	C 	0.54949 0.79466 0.04236 0.07700
C 	C 	0.53865 0.75899 0.04133 -0.08400
C 	C 	0.55842 0.73109 0.01421 0.01700
C 	C 	0.59010 0.73865 0.98890 -0.00500
C 	C 	0.60033 0.77449 0.98773 -0.01900
H 	H 	0.51500 0.75285 0.06273 0.05100
H 	H 	0.62402 0.78052 0.96634 0.03800
C 	C 	0.52929 0.82308 0.07867 -0.12600
C 	C 	0.61304 0.70894 0.96188 -0.09100
C 	C 	0.53779 0.82148 0.14700 -0.00800
H 	H 	0.53614 0.79334 0.16430 0.02800
H 	H 	0.51877 0.83869 0.17206 0.02800
C 	C 	0.60820 0.70635 0.89265 -0.02700
H 	H 	0.61578 0.73185 0.87069 0.03400
H 	H 	0.58135 0.70264 0.88173 0.03400
H 	H 	0.53213 0.85091 0.06122 0.07300
H 	H 	0.60896 0.68236 0.98363 0.04600
C 	C 	0.57261 0.83513 0.16112 -0.16800
C 	C 	0.62924 0.67468 0.86576 -0.15600
H 	H 	0.57524 0.86273 0.14216 0.07800
H 	H 	0.57610 0.83634 0.21129 0.06600
H 	H 	0.59256 0.81646 0.14200 0.07400
H 	H 	0.50209 0.81817 0.07344 0.05500
H 	H 	0.65637 0.67785 0.87516 0.05400
H 	H 	0.62551 0.67385 0.81562 0.05600
H 	H 	0.62140 0.64869 0.88551 0.05600
H 	H 	0.63967 0.71489 0.97155 0.04300
