data_crystal

_cell_length_a 25.96330
_cell_length_b 26.48465
_cell_length_c 34.87097
_cell_angle_alpha 95.49665
_cell_angle_beta  95.49224
_cell_angle_gamma 125.83306

_symmetry_space_group_name_	'P 1'
_symmetry_space_group_name_H-M	'P 1'

loop_
_symmetry_equiv_pos_as_xyz
  x,y,z

loop_
_atom_site_label
_atom_site_type_symbol
_atom_site_fract_x
_atom_site_fract_y
_atom_site_fract_z
_atom_site_charge
C 	C 	0.98334 0.05075 0.00064 0.15900
N 	N 	0.04468 0.07663 0.99521 -0.13300
C 	C 	0.06671 0.04098 0.99426 0.15800
N 	N 	0.02744 0.97981 0.99905 -0.12300
C 	C 	0.96560 0.95347 0.00314 0.16100
N 	N 	0.94369 0.98901 0.00415 -0.12300
C 	C 	0.92556 0.98202 0.45824 0.16000
N 	N 	0.89239 0.91883 0.45792 -0.12600
C 	C 	0.92505 0.89380 0.46371 0.16100
N 	N 	0.99060 0.93189 0.46958 -0.12800
C 	C 	0.02375 0.99501 0.47035 0.16300
N 	N 	0.99122 0.02001 0.46448 -0.12600
Cu	Cu	0.66401 0.27768 0.00519 0.92800
Cu	Cu	0.70004 0.26314 0.91950 0.88800
Cu	Cu	0.67346 0.36542 0.95086 0.91900
Cu	Cu	0.64116 0.38056 0.03044 0.90400
C 	C 	0.66043 0.30957 0.08527 0.28200
O 	O 	0.56771 0.22343 0.00566 -0.36100
C 	C 	0.69467 0.34566 0.87518 0.27900
O 	O 	0.69790 0.37204 0.00590 -0.63500
O 	O 	0.64724 0.27726 0.94832 -0.62800
O 	O 	0.72617 0.25571 0.00702 -0.35000
O 	O 	0.68915 0.19864 0.94482 -0.40600
O 	O 	0.65412 0.35481 0.08044 -0.36500
O 	O 	0.70543 0.45271 0.95505 -0.35000
C 	C 	0.70301 0.48447 0.98546 0.31100
C 	C 	0.53205 0.24136 0.99389 0.30300
O 	O 	0.55954 0.29972 0.98858 -0.37100
O 	O 	0.65954 0.45465 0.00773 -0.37300
O 	O 	0.68703 0.29383 0.06109 -0.34900
C 	C 	0.72135 0.21366 0.98042 0.31100
O 	O 	0.66067 0.35728 0.89447 -0.35500
O 	O 	0.73334 0.33570 0.89409 -0.40500
H 	H 	0.74439 0.40556 0.01664 0.18700
H 	H 	0.60102 0.24549 0.93618 0.17600
Cu	Cu	0.72240 0.31952 0.44607 0.93100
Cu	Cu	0.73991 0.28091 0.53034 0.88000
Cu	Cu	0.63285 0.28844 0.50540 0.90200
Cu	Cu	0.59730 0.31235 0.42841 0.91000
C 	C 	0.65888 0.29195 0.36618 0.28100
O 	O 	0.75655 0.41058 0.44393 -0.34800
C 	C 	0.69504 0.32046 0.58913 0.28000
O 	O 	0.62389 0.26688 0.44988 -0.63900
O 	O 	0.72668 0.33401 0.50340 -0.63800
O 	O 	0.77041 0.28200 0.44513 -0.36000
O 	O 	0.71448 0.21701 0.48696 -0.41400
O 	O 	0.63175 0.31831 0.37876 -0.35300
O 	O 	0.54041 0.23896 0.50357 -0.36100
C 	C 	0.49948 0.23911 0.47804 0.31400
C 	C 	0.72964 0.43506 0.45928 0.30500
O 	O 	0.67329 0.39787 0.46948 -0.37300
O 	O 	0.51963 0.27875 0.45315 -0.36900
O 	O 	0.70155 0.29195 0.39023 -0.34500
C 	C 	0.74971 0.23059 0.45966 0.31300
O 	O 	0.64201 0.29727 0.56311 -0.37100
O 	O 	0.74502 0.32526 0.57866 -0.40300
H 	H 	0.59582 0.22077 0.43915 0.18800
H 	H 	0.75404 0.37903 0.51668 0.18000
C 	C 	0.81373 0.40972 0.72584 -0.03600
C 	C 	0.81368 0.41236 0.76611 -0.03600
C 	C 	0.75515 0.38271 0.77992 0.02500
C 	C 	0.69637 0.35166 0.75308 -0.00500
C 	C 	0.69639 0.34856 0.71250 -0.00500
C 	C 	0.75523 0.37709 0.69883 0.02400
C 	C 	0.63742 0.31541 0.68557 0.02500
C 	C 	0.57906 0.28746 0.69946 -0.03500
C 	C 	0.57907 0.29094 0.73979 -0.03600
C 	C 	0.63743 0.32221 0.76675 0.02500
C 	C 	0.63744 0.32283 0.80708 -0.02600
C 	C 	0.69569 0.35150 0.83364 -0.05200
C 	C 	0.75452 0.38238 0.82009 -0.02400
C 	C 	0.75475 0.37096 0.65835 -0.02500
C 	C 	0.69578 0.33502 0.63137 -0.04900
C 	C 	0.63734 0.30889 0.64509 -0.02600
H 	H 	0.85925 0.43224 0.71564 0.05200
H 	H 	0.85914 0.43688 0.78652 0.05400
H 	H 	0.53353 0.26236 0.67903 0.05500
H 	H 	0.53357 0.26855 0.75000 0.05600
H 	H 	0.59212 0.29926 0.81765 0.05600
H 	H 	0.79954 0.40539 0.84075 0.05900
H 	H 	0.80000 0.39274 0.64786 0.05500
H 	H 	0.59184 0.28183 0.62441 0.06100
C 	C 	0.76271 0.30884 0.25203 -0.03400
C 	C 	0.76290 0.31136 0.21210 -0.03400
C 	C 	0.70759 0.29517 0.18710 0.02700
C 	C 	0.65083 0.27385 0.20205 -0.00300
C 	C 	0.65058 0.27111 0.24221 -0.00300
C 	C 	0.70716 0.28999 0.26744 0.02800
C 	C 	0.59462 0.25217 0.25743 0.02800
C 	C 	0.53855 0.23372 0.23215 -0.03300
C 	C 	0.53889 0.23668 0.19230 -0.03400
C 	C 	0.59523 0.25797 0.17722 0.02800
C 	C 	0.59753 0.26612 0.13808 -0.02400
C 	C 	0.65493 0.29023 0.12368 -0.04300
C 	C 	0.70917 0.30269 0.14779 -0.02100
C 	C 	0.70841 0.29256 0.30798 -0.02100
C 	C 	0.65379 0.27721 0.32345 -0.03900
C 	C 	0.59628 0.25463 0.29794 -0.02200
H 	H 	0.80618 0.32269 0.27107 0.05700
H 	H 	0.80651 0.32710 0.20082 0.05700
H 	H 	0.49505 0.21832 0.24347 0.05800
H 	H 	0.49564 0.22351 0.17334 0.06000
H 	H 	0.55549 0.25575 0.11918 0.05200
H 	H 	0.75334 0.32100 0.13650 0.06200
H 	H 	0.75262 0.30934 0.32758 0.06400
H 	H 	0.55371 0.24134 0.30983 0.05400
C 	C 	0.75746 0.50205 0.45926 -0.09800
C 	C 	0.72204 0.51852 0.43789 0.15400
C 	C 	0.74798 0.58235 0.43954 -0.08300
C 	C 	0.80973 0.63024 0.46145 0.03000
C 	C 	0.84560 0.61393 0.48234 0.08300
C 	C 	0.81935 0.54999 0.48113 -0.00700
H 	H 	0.72063 0.59479 0.42307 0.09200
C 	C 	0.83737 0.69732 0.46119 0.01600
H 	H 	0.84690 0.53761 0.49743 0.06100
C 	C 	0.83014 0.73134 0.49078 -0.06500
C 	C 	0.85648 0.79510 0.49109 0.12500
C 	C 	0.88968 0.82504 0.46123 -0.03200
C 	C 	0.89539 0.79046 0.43112 -0.03600
C 	C 	0.86957 0.72695 0.43100 0.09900
H 	H 	0.80487 0.70848 0.51387 0.08600
H 	H 	0.92112 0.81339 0.40818 0.08100
Br	Br	0.93065 0.67831 0.51233 -0.19000
Br	Br	0.63994 0.45484 0.40437 -0.24500
Br	Br	0.84910 0.84117 0.53342 -0.18600
Br	Br	0.88011 0.68185 0.38989 -0.18800
C 	C 	0.89067 0.00965 0.45261 -0.03000
C 	C 	0.89068 0.03445 0.41862 0.12400
C 	C 	0.86500 0.06833 0.41602 -0.06400
C 	C 	0.83965 0.07812 0.44722 0.01400
C 	C 	0.83728 0.05113 0.48053 0.10100
C 	C 	0.86250 0.01684 0.48299 -0.03700
H 	H 	0.86595 0.08814 0.39008 0.08700
C 	C 	0.81803 0.11871 0.44551 0.02900
H 	H 	0.86203 0.99748 0.50908 0.08800
C 	C 	0.75240 0.09082 0.43264 -0.08300
C 	C 	0.73007 0.12782 0.43478 0.15200
C 	C 	0.77370 0.19345 0.44981 -0.10300
C 	C 	0.83993 0.22190 0.46031 -0.01100
C 	C 	0.86221 0.18486 0.45842 0.08200
H 	H 	0.71849 0.04015 0.42183 0.09100
H 	H 	0.87379 0.27246 0.47155 0.05900
Br	Br	0.80173 0.06238 0.52349 -0.19600
Br	Br	0.92518 0.02218 0.37538 -0.19300
Br	Br	0.63998 0.08810 0.41663 -0.21100
Br	Br	0.95275 0.22506 0.47507 -0.19100
C 	C 	0.09454 0.03544 0.47500 -0.03200
C 	C 	0.13327 0.04428 0.50992 0.12400
C 	C 	0.20014 0.07818 0.51251 -0.06600
C 	C 	0.22886 0.10386 0.48062 0.01600
C 	C 	0.19030 0.09615 0.44599 0.10100
C 	C 	0.12348 0.06231 0.44343 -0.03600
H 	H 	0.22981 0.08466 0.53933 0.08600
C 	C 	0.29919 0.13819 0.48351 0.02800
H 	H 	0.09382 0.05574 0.41655 0.08700
C 	C 	0.32341 0.10469 0.47238 -0.08200
C 	C 	0.38937 0.13712 0.47180 0.14800
C 	C 	0.43163 0.20367 0.48257 -0.09400
C 	C 	0.40774 0.23690 0.49508 -0.00600
C 	C 	0.34186 0.20448 0.49575 0.08500
H 	H 	0.29072 0.05357 0.46331 0.09000
H 	H 	0.44027 0.28809 0.50375 0.07100
Br	Br	0.22803 0.13085 0.40179 -0.18300
Br	Br	0.09598 0.01204 0.55476 -0.18300
Br	Br	0.42031 0.08999 0.45458 -0.22000
Br	Br	0.31078 0.25157 0.51273 -0.18400
C 	C 	0.73891 0.55337 0.98919 -0.09500
C 	C 	0.80654 0.59288 0.99188 0.14900
C 	C 	0.83990 0.65830 0.99518 -0.08200
C 	C 	0.80666 0.68500 0.99663 0.03000
C 	C 	0.73927 0.64575 0.99461 0.08400
C 	C 	0.70569 0.58018 0.99081 -0.00600
H 	H 	0.89186 0.68857 0.99694 0.09200
C 	C 	0.84259 0.75384 0.99905 0.01700
H 	H 	0.65371 0.55002 0.98894 0.07500
C 	C 	0.84584 0.77787 0.96454 -0.06500
C 	C 	0.88440 0.84327 0.96580 0.12700
C 	C 	0.92063 0.88517 0.00184 -0.03100
C 	C 	0.91606 0.86125 0.03650 -0.03500
C 	C 	0.87704 0.79579 0.03529 0.09900
H 	H 	0.81902 0.74564 0.93665 0.08900
H 	H 	0.94343 0.89350 0.06433 0.08300
Br	Br	0.69250 0.68096 0.99742 -0.18100
Br	Br	0.85467 0.55885 0.99314 -0.22800
Br	Br	0.88768 0.87458 0.91796 -0.17700
Br	Br	0.87139 0.76445 0.08332 -0.18500
C 	C 	0.76402 0.19486 0.98783 -0.10200
C 	C 	0.83180 0.24013 0.99359 0.14800
C 	C 	0.87154 0.22074 0.99777 -0.08300
C 	C 	0.84436 0.15641 0.99541 0.02900
C 	C 	0.77674 0.11125 0.99012 0.08300
C 	C 	0.73694 0.13065 0.98630 -0.00600
H 	H 	0.92356 0.25554 0.00183 0.09000
C 	C 	0.88684 0.13647 0.99725 0.01500
H 	H 	0.68488 0.09568 0.98169 0.06800
C 	C 	0.90926 0.13036 0.03341 -0.06600
C 	C 	0.94489 0.10623 0.03519 0.12500
C 	C 	0.95846 0.08818 0.00052 -0.03300
C 	C 	0.93940 0.09790 0.96469 -0.03600
C 	C 	0.90356 0.12181 0.96288 0.10100
H 	H 	0.89772 0.14300 0.06004 0.08600
H 	H 	0.95014 0.08444 0.93799 0.08400
Br	Br	0.73792 0.02278 0.98724 -0.18300
Br	Br	0.87090 0.32806 0.99331 -0.24000
Br	Br	0.97425 0.09776 0.08513 -0.19200
Br	Br	0.87585 0.13197 0.91305 -0.19400
C 	C 	0.13358 0.06897 0.98917 -0.03100
C 	C 	0.14681 0.03643 0.96229 0.12200
C 	C 	0.21073 0.05880 0.96218 -0.06700
C 	C 	0.26198 0.11499 0.98735 0.01500
C 	C 	0.24904 0.15013 0.01202 0.10200
C 	C 	0.18502 0.12646 0.01330 -0.03900
H 	H 	0.22065 0.03299 0.94206 0.08400
C 	C 	0.32915 0.13838 0.98621 0.02900
H 	H 	0.17527 0.15237 0.03347 0.08300
C 	C 	0.35730 0.16572 0.95457 -0.08600
C 	C 	0.42269 0.19375 0.95482 0.15200
C 	C 	0.46110 0.19672 0.98771 -0.10000
C 	C 	0.43163 0.16454 0.01774 -0.01000
C 	C 	0.36567 0.13470 0.01687 0.08500
H 	H 	0.32852 0.16589 0.93000 0.08900
H 	H 	0.46051 0.16507 0.04260 0.06400
Br	Br	0.31813 0.23105 0.04353 -0.19500
Br	Br	0.07894 0.96444 0.92341 -0.18200
Br	Br	0.45808 0.22541 0.90937 -0.23900
Br	Br	0.32649 0.08987 0.05794 -0.19400
