data_crystal

_cell_length_a 24.58002
_cell_length_b 24.32001
_cell_length_c 16.90337
_cell_angle_alpha 90.00000
_cell_angle_beta  90.00000
_cell_angle_gamma 120.56530

_symmetry_space_group_name_	'P 1'
_symmetry_space_group_name_H-M	'P 1'

loop_
_symmetry_equiv_pos_as_xyz
  x,y,z

loop_
_atom_site_label
_atom_site_type_symbol
_atom_site_fract_x
_atom_site_fract_y
_atom_site_fract_z
_atom_site_charge
C 	C 	0.00670 0.49010 0.93901 0.02500
C 	C 	0.02797 0.45797 0.89052 -0.05600
H 	H 	0.03059 0.58089 0.99114 0.04900
C 	C 	0.00650 0.50094 0.56547 0.02400
C 	C 	0.02610 0.46669 0.61261 -0.05700
C 	C 	0.04619 0.55574 0.95306 -0.06100
C 	C 	0.04698 0.56685 0.55465 -0.06100
H 	H 	0.03237 0.59375 0.51829 0.04900
C 	C 	0.08683 0.49726 0.64496 0.01200
C 	C 	0.08884 0.49074 0.85847 0.01000
H 	H 	0.10210 0.46973 0.67881 0.03000
C 	C 	0.10654 0.58877 0.91978 0.01300
H 	H 	0.10530 0.46504 0.82295 0.03000
C 	C 	0.10740 0.59772 0.58808 0.01500
C 	C 	0.12851 0.55633 0.87292 -0.07900
C 	C 	0.12825 0.56277 0.63196 -0.08300
H 	H 	0.13669 0.63923 0.93202 0.04100
H 	H 	0.13853 0.64834 0.57784 0.04100
H 	H 	0.99773 0.40743 0.87877 0.04000
C 	C 	0.40991 0.60134 0.83591 0.28300
C 	C 	0.19364 0.59400 0.66259 0.29300
C 	C 	0.40487 0.60051 0.65841 0.29300
C 	C 	0.19303 0.59064 0.83972 0.28300
C 	C 	0.39958 0.80440 0.66052 0.29100
C 	C 	0.39924 0.80695 0.83895 0.28400
Ni	Ni	0.28969 0.57400 0.74941 1.10900
Ni	Ni	0.28739 0.70915 0.75128 1.11700
Ni	Ni	0.42294 0.71466 0.74996 1.11700
O 	O 	0.34781 0.56358 0.83076 -0.37200
O 	O 	0.43606 0.66424 0.83592 -0.38000
O 	O 	0.33764 0.77435 0.66718 -0.38000
O 	O 	0.22165 0.56029 0.66614 -0.37300
O 	O 	0.22762 0.65661 0.66297 -0.37900
O 	O 	0.43451 0.78023 0.83253 -0.38100
O 	O 	0.34301 0.57017 0.65737 -0.37700
O 	O 	0.43740 0.66301 0.66627 -0.37500
O 	O 	0.33686 0.77179 0.83770 -0.38600
O 	O 	0.22529 0.56066 0.83778 -0.37400
O 	O 	0.22228 0.65379 0.83447 -0.37900
O 	O 	0.42916 0.77211 0.66092 -0.38500
O 	O 	0.33251 0.66402 0.76080 -0.70400
H 	H 	0.33265 0.66369 0.81930 0.14000
C 	C 	0.78933 0.37986 0.13880 0.28700
C 	C 	0.61715 0.40677 0.36241 0.30600
C 	C 	0.78723 0.38681 0.36439 0.30700
C 	C 	0.61691 0.40735 0.13785 0.28600
C 	C 	0.59936 0.21809 0.36960 0.30800
C 	C 	0.59168 0.21125 0.14290 0.28700
Ni	Ni	0.71993 0.42480 0.24958 1.11300
Ni	Ni	0.58019 0.29848 0.25373 1.12000
Ni	Ni	0.70126 0.28312 0.25429 1.12000
O 	O 	0.79459 0.42427 0.18960 -0.37000
O 	O 	0.75199 0.31772 0.15333 -0.38100
O 	O 	0.56101 0.21996 0.31658 -0.38600
O 	O 	0.65820 0.44514 0.30960 -0.37500
O 	O 	0.59398 0.34481 0.35823 -0.38600
O 	O 	0.62883 0.20748 0.19749 -0.38200
O 	O 	0.75405 0.41514 0.35795 -0.37900
O 	O 	0.78298 0.34629 0.30981 -0.38300
O 	O 	0.56399 0.24549 0.15537 -0.38500
O 	O 	0.67920 0.43638 0.14786 -0.37500
O 	O 	0.57720 0.37052 0.19444 -0.37700
O 	O 	0.66095 0.25379 0.36109 -0.39200
O 	O 	0.66800 0.33688 0.23372 -0.72000
H 	H 	0.66732 0.33562 0.17548 0.15600
C 	C 	0.94500 0.45435 0.97959 0.01500
C 	C 	0.93175 0.40217 0.02823 -0.06000
C 	C 	0.87796 0.37452 0.07617 0.01400
C 	C 	0.83745 0.39937 0.07676 -0.08000
C 	C 	0.84871 0.44911 0.02494 0.01100
C 	C 	0.90193 0.47609 0.97596 -0.06000
H 	H 	0.96449 0.38482 0.03142 0.04500
H 	H 	0.86963 0.33605 0.11593 0.03300
H 	H 	0.81731 0.46817 0.02440 0.03000
H 	H 	0.91094 0.51541 0.93736 0.04400
C 	C 	0.94665 0.46677 0.52080 0.01500
H 	H 	0.99492 0.41596 0.62218 0.04100
C 	C 	0.90126 0.48528 0.52733 -0.06100
C 	C 	0.84769 0.45729 0.47879 0.01200
C 	C 	0.83912 0.41054 0.42308 -0.08500
C 	C 	0.88300 0.38970 0.41991 0.01400
C 	C 	0.93659 0.41799 0.46800 -0.06100
H 	H 	0.90805 0.52215 0.56893 0.04400
H 	H 	0.81362 0.47285 0.48352 0.03800
H 	H 	0.87660 0.35283 0.37859 0.03600
H 	H 	0.97121 0.40316 0.46271 0.04500
C 	C 	0.48156 0.07556 0.48902 -0.06100
C 	C 	0.52089 0.05636 0.52437 0.01600
C 	C 	0.58672 0.09502 0.51689 -0.06200
C 	C 	0.61278 0.15001 0.46998 0.01300
C 	C 	0.57317 0.16698 0.43018 -0.08500
C 	C 	0.50755 0.13083 0.44278 0.01600
C 	C 	0.49301 0.99321 0.56304 0.02300
H 	H 	0.61758 0.08137 0.54541 0.04300
H 	H 	0.66356 0.17806 0.46251 0.03500
H 	H 	0.47644 0.14433 0.41467 0.03500
H 	H 	0.43071 0.04647 0.49512 0.04600
C 	C 	0.44905 0.97693 0.62459 -0.05600
C 	C 	0.41843 0.91520 0.65617 0.00900
C 	C 	0.43229 0.86951 0.62746 -0.08300
C 	C 	0.47738 0.88628 0.56720 0.01500
C 	C 	0.50734 0.94770 0.53492 -0.06200
H 	H 	0.43810 0.01186 0.64729 0.04100
H 	H 	0.38431 0.90303 0.70333 0.03100
H 	H 	0.48829 0.85141 0.54423 0.04200
H 	H 	0.54076 0.95956 0.48698 0.04900
C 	C 	0.57818 0.08368 0.00423 -0.05800
C 	C 	0.51616 0.05809 0.97633 0.01400
C 	C 	0.48274 0.08935 0.99361 -0.06000
C 	C 	0.50893 0.14226 0.04412 0.01200
C 	C 	0.56909 0.16471 0.07721 -0.07800
C 	C 	0.60474 0.13710 0.05370 0.01100
C 	C 	0.48386 0.99491 0.93732 0.02400
H 	H 	0.43545 0.07102 0.97061 0.04300
H 	H 	0.48133 0.16389 0.06011 0.03700
H 	H 	0.65209 0.15536 0.07644 0.03400
H 	H 	0.60478 0.06052 0.99045 0.04400
C 	C 	0.51154 0.98304 0.87176 -0.05500
C 	C 	0.48428 0.92144 0.84025 0.00800
C 	C 	0.42833 0.87154 0.87276 -0.08100
C 	C 	0.39990 0.88372 0.93712 0.01500
C 	C 	0.42772 0.94495 0.96953 -0.06100
H 	H 	0.55457 0.02132 0.84597 0.04100
H 	H 	0.50638 0.91261 0.79024 0.03100
H 	H 	0.35692 0.84548 0.96304 0.04100
H 	H 	0.40638 0.95330 0.02073 0.04900
C 	C 	0.46958 0.48760 0.86988 -0.06100
C 	C 	0.51124 0.51695 0.93351 0.01900
C 	C 	0.52207 0.57591 0.96213 -0.06100
C 	C 	0.49031 0.60436 0.92891 0.01300
C 	C 	0.44688 0.57385 0.86722 -0.08100
C 	C 	0.43718 0.51567 0.83731 0.01000
C 	C 	0.53975 0.48384 0.97419 0.02000
H 	H 	0.55384 0.59884 0.01149 0.04700
H 	H 	0.49810 0.64917 0.95270 0.04100
H 	H 	0.40437 0.49210 0.78905 0.03000
H 	H 	0.46146 0.44251 0.84664 0.04500
C 	C 	0.50087 0.42336 0.00778 -0.06000
C 	C 	0.52682 0.39625 0.05673 0.01200
C 	C 	0.59182 0.42987 0.07386 -0.07900
C 	C 	0.63132 0.48833 0.03552 0.01200
C 	C 	0.60536 0.51509 0.98589 -0.06200
H 	H 	0.45025 0.39842 0.99837 0.04600
H 	H 	0.49602 0.35013 0.08358 0.03300
H 	H 	0.68174 0.51427 0.04643 0.03700
H 	H 	0.63598 0.56112 0.95872 0.04500
C 	C 	0.50763 0.41724 0.51095 -0.06300
C 	C 	0.53429 0.48361 0.51704 0.02100
C 	C 	0.59164 0.52447 0.47884 -0.06300
C 	C 	0.62043 0.49930 0.43166 0.01700
C 	C 	0.59171 0.43288 0.42135 -0.08700
C 	C 	0.53609 0.39194 0.46328 0.01400
C 	C 	0.49939 0.51022 0.55717 0.01900
H 	H 	0.61288 0.57578 0.48364 0.04700
H 	H 	0.66419 0.53152 0.40154 0.03500
H 	H 	0.51385 0.34063 0.45719 0.03400
H 	H 	0.46389 0.38527 0.54134 0.04500
C 	C 	0.43900 0.49417 0.53053 -0.06100
C 	C 	0.40781 0.52304 0.56410 0.01500
C 	C 	0.43690 0.56868 0.62434 -0.08500
C 	C 	0.49695 0.58409 0.65178 0.01100
C 	C 	0.52788 0.55468 0.61869 -0.06100
H 	H 	0.41679 0.46028 0.48266 0.04700
H 	H 	0.36162 0.51091 0.54209 0.04100
H 	H 	0.51950 0.61861 0.69893 0.03000
H 	H 	0.57425 0.56697 0.64019 0.04600
