data_crystal

_cell_length_a 25.52868
_cell_length_b 25.33822
_cell_length_c 23.07317
_cell_angle_alpha 95.49627
_cell_angle_beta  95.49291
_cell_angle_gamma 125.77959

_symmetry_space_group_name_	'P 1'
_symmetry_space_group_name_H-M	'P 1'

loop_
_symmetry_equiv_pos_as_xyz
  x,y,z

loop_
_atom_site_label
_atom_site_type_symbol
_atom_site_fract_x
_atom_site_fract_y
_atom_site_fract_z
_atom_site_charge
N 	N 	0.03607 0.05883 0.00699 -0.13000
C 	C 	0.05814 0.02235 0.99432 0.12100
C 	C 	0.04826 0.02849 0.46403 0.11800
Cu	Cu	0.64435 0.25001 0.01208 0.92800
Cu	Cu	0.70919 0.24443 0.89814 0.86800
Cu	Cu	0.67071 0.33321 0.91645 0.89700
Cu	Cu	0.63218 0.36715 0.02399 0.89300
C 	C 	0.65507 0.31535 0.12632 0.28400
O 	O 	0.54663 0.20527 0.00403 -0.36300
C 	C 	0.67269 0.28120 0.79768 0.27800
O 	O 	0.68993 0.34876 0.00153 -0.64100
O 	O 	0.63801 0.24159 0.92510 -0.63900
O 	O 	0.69082 0.20975 0.02674 -0.36500
O 	O 	0.76575 0.27425 0.97214 -0.43700
O 	O 	0.62107 0.33321 0.09992 -0.38100
O 	O 	0.70855 0.42426 0.91239 -0.38300
C 	C 	0.69007 0.45845 0.93738 0.29300
C 	C 	0.51730 0.22500 0.97280 0.28800
O 	O 	0.55253 0.28358 0.95792 -0.39400
O 	O 	0.66783 0.44769 0.98775 -0.38900
O 	O 	0.66383 0.27471 0.09673 -0.35400
C 	C 	0.74775 0.23481 0.01074 0.28500
O 	O 	0.66014 0.31739 0.82965 -0.37300
O 	O 	0.67301 0.23462 0.81809 -0.41500
H 	H 	0.73693 0.38262 0.01949 0.16600
H 	H 	0.59392 0.20670 0.90097 0.17600
Cu	Cu	0.73780 0.34471 0.42134 0.92800
Cu	Cu	0.73895 0.26908 0.52867 0.87000
Cu	Cu	0.63654 0.28975 0.50248 0.89800
Cu	Cu	0.61663 0.34941 0.40407 0.89400
C 	C 	0.68193 0.34307 0.30649 0.28000
O 	O 	0.77891 0.44274 0.44006 -0.36100
C 	C 	0.68596 0.28948 0.62393 0.28300
O 	O 	0.63607 0.29049 0.41979 -0.64100
O 	O 	0.73299 0.33701 0.50547 -0.64100
O 	O 	0.78312 0.30336 0.40647 -0.36900
O 	O 	0.71727 0.21804 0.45257 -0.43900
O 	O 	0.65824 0.37162 0.33240 -0.37800
O 	O 	0.54220 0.23973 0.49273 -0.37900
C 	C 	0.50648 0.25438 0.46361 0.29100
C 	C 	0.75265 0.46507 0.47080 0.28200
O 	O 	0.69187 0.42398 0.47848 -0.38600
O 	O 	0.53314 0.30568 0.43628 -0.39100
O 	O 	0.72519 0.33853 0.33705 -0.35200
C 	C 	0.75735 0.24282 0.41488 0.28700
O 	O 	0.63527 0.27282 0.58430 -0.38000
O 	O 	0.73783 0.29719 0.60791 -0.41600
H 	H 	0.60689 0.24602 0.39416 0.16600
H 	H 	0.76057 0.37950 0.53413 0.17300
C 	C 	0.67969 0.28787 0.68497 -0.04800
C 	C 	0.67563 0.28531 0.73637 -0.04600
C 	C 	0.66619 0.32496 0.18980 -0.04100
C 	C 	0.67404 0.33309 0.24312 -0.04000
S 	S 	0.75187 0.57241 0.50243 0.01500
C 	C 	0.78931 0.53662 0.49239 -0.07500
C 	C 	0.85129 0.58429 0.47947 -0.02100
H 	H 	0.88121 0.57186 0.46139 0.04600
C 	C 	0.78893 0.11910 0.38016 0.01100
C 	C 	0.85136 0.17151 0.37156 0.00200
S 	S 	0.85388 0.23880 0.37559 0.01700
C 	C 	0.77667 0.20446 0.38503 -0.07800
C 	C 	0.74679 0.13755 0.38761 -0.02300
H 	H 	0.70096 0.10660 0.40315 0.03900
C 	C 	0.23845 0.16982 0.50819 0.00100
C 	C 	0.29786 0.21873 0.49248 -0.05400
C 	C 	0.34873 0.21196 0.49872 0.01600
C 	C 	0.33858 0.15595 0.51731 0.00200
C 	C 	0.27606 0.10231 0.52350 -0.05800
C 	C 	0.22619 0.11060 0.52064 0.02500
S 	S 	0.16654 0.15463 0.48404 0.00900
C 	C 	0.11820 0.07538 0.49174 -0.01700
C 	C 	0.15830 0.05714 0.51111 -0.04800
S 	S 	0.39656 0.15016 0.49860 0.02600
C 	C 	0.43678 0.21782 0.46792 -0.07500
C 	C 	0.40454 0.24738 0.47162 -0.02000
H 	H 	0.30305 0.25846 0.47304 0.04700
H 	H 	0.26579 0.05497 0.52746 0.04800
H 	H 	0.42066 0.29255 0.45568 0.04300
S 	S 	0.76718 0.55988 0.87785 0.02600
C 	C 	0.70565 0.51731 0.91455 -0.07400
C 	C 	0.69200 0.55973 0.93946 -0.02100
H 	H 	0.66179 0.54827 0.97301 0.04300
C 	C 	0.79646 0.11642 0.00742 -0.01100
C 	C 	0.80385 0.06776 0.01927 -0.05600
C 	C 	0.86042 0.07544 0.00684 0.02000
C 	C 	0.84798 0.17594 0.99357 0.02500
S 	S 	0.74497 0.12840 0.03307 0.01800
C 	C 	0.78374 0.20767 0.02539 -0.07700
C 	C 	0.84096 0.22730 0.00336 -0.04200
H 	H 	0.76830 0.02692 0.03903 0.04500
H 	H 	0.87444 0.27563 0.99228 0.04200
C 	C 	0.34084 0.11813 0.00487 -0.00400
C 	C 	0.27599 0.06472 0.00532 -0.06300
C 	C 	0.23034 0.07820 0.00984 0.02700
C 	C 	0.24904 0.14259 0.01017 -0.00900
C 	C 	0.31089 0.19298 0.99955 -0.04900
C 	C 	0.35751 0.18041 0.99865 0.01800
S 	S 	0.39724 0.11224 0.98208 0.03000
C 	C 	0.44575 0.18813 0.96562 -0.07700
C 	C 	0.41655 0.22001 0.97686 -0.02200
S 	S 	0.18126 0.13747 0.99350 0.01700
C 	C 	0.12656 0.05522 0.98676 -0.01700
C 	C 	0.16133 0.02901 0.99748 -0.05500
H 	H 	0.26108 0.01450 0.99992 0.05100
H 	H 	0.32134 0.23891 0.98984 0.04600
H 	H 	0.43876 0.27087 0.97251 0.03700
C 	C 	0.77929 0.06332 0.39874 -0.05300
H 	H 	0.73117 0.02195 0.40423 0.04200
C 	C 	0.83450 0.06458 0.41347 -0.01100
N 	N 	0.01371 0.05147 0.44740 -0.13000
C 	C 	0.90646 0.17236 0.38604 -0.06300
C 	C 	0.88163 0.03852 0.02656 -0.05700
C 	C 	0.89677 0.11694 0.40527 0.02600
C 	C 	0.91116 0.03360 0.40642 -0.02500
C 	C 	0.90925 0.13226 0.98719 0.00600
C 	C 	0.90651 0.18564 0.98518 -0.06300
C 	C 	0.81201 0.64799 0.49381 0.00300
C 	C 	0.86392 0.64687 0.48011 0.01400
C 	C 	0.73171 0.62364 0.92496 0.01700
C 	C 	0.77620 0.63075 0.88894 -0.00000
C 	C 	0.94060 0.10009 0.40248 -0.04900
H 	H 	0.76088 0.69203 0.48354 0.04800
H 	H 	0.95482 0.21402 0.38135 0.04600
C 	C 	0.94769 0.06750 0.02317 -0.01700
H 	H 	0.94871 0.23322 0.97926 0.04500
C 	C 	0.94823 0.00849 0.42504 0.10700
C 	C 	0.80238 0.69309 0.47469 -0.06000
C 	C 	0.97297 0.02860 0.01426 0.10500
C 	C 	0.74245 0.67970 0.95784 -0.05600
H 	H 	0.71231 0.67492 0.98999 0.04800
S 	S 	0.97743 0.13732 0.99638 0.00200
H 	H 	0.99092 0.13437 0.39665 0.04700
C 	C 	0.91094 0.69510 0.45132 -0.05500
C 	C 	0.83523 0.69280 0.88984 -0.05700
H 	H 	0.87437 0.69692 0.87075 0.04700
H 	H 	0.95213 0.69588 0.44191 0.04600
C 	C 	0.84869 0.74035 0.44482 0.02500
C 	C 	0.79639 0.74204 0.95132 0.00600
C 	C 	0.84431 0.74886 0.92053 0.02400
C 	C 	0.90087 0.73965 0.43188 0.00100
C 	C 	0.85884 0.80113 0.44073 -0.04900
S 	S 	0.95930 0.81371 0.41877 0.00200
H 	H 	0.82834 0.81382 0.45686 0.05000
S 	S 	0.83178 0.81127 0.00067 -0.00200
C 	C 	0.90655 0.81131 0.93865 -0.04900
H 	H 	0.94889 0.82589 0.91884 0.04800
H 	H 	0.13998 0.00633 0.51130 0.05100
C 	C 	0.91931 0.84735 0.42472 -0.01600
C 	C 	0.90734 0.85238 0.98458 -0.01400
S 	S 	0.83335 0.99840 0.41473 0.02000
H 	H 	0.13799 0.97684 0.99645 0.06000
N 	N 	0.01652 0.95534 0.98783 -0.12800
H 	H 	0.84988 0.99215 0.04148 0.05800
N 	N 	0.01734 0.96220 0.45737 -0.12500
N 	N 	0.91730 0.94223 0.41913 -0.13200
N 	N 	0.93202 0.96175 0.00904 -0.13400
C 	C 	0.95192 0.91899 0.43483 0.11300
C 	C 	0.95338 0.92496 0.99504 0.11700
