data_crystal

_cell_length_a 24.32935
_cell_length_b 21.62550
_cell_length_c 47.60128
_cell_angle_alpha 90.57505
_cell_angle_beta  91.43044
_cell_angle_gamma 110.77265

_symmetry_space_group_name_	'P 1'
_symmetry_space_group_name_H-M	'P 1'

loop_
_symmetry_equiv_pos_as_xyz
  x,y,z

loop_
_atom_site_label
_atom_site_type_symbol
_atom_site_fract_x
_atom_site_fract_y
_atom_site_fract_z
_atom_site_charge
Ni	Ni	0.70354 0.30136 0.88298 1.09900
O 	O 	0.62409 0.26103 0.86225 -0.70500
Ni	Ni	0.57094 0.28119 0.88925 1.10000
O 	O 	0.74374 0.27167 0.85096 -0.36800
O 	O 	0.68345 0.16357 0.85526 -0.41000
O 	O 	0.71026 0.38437 0.86074 -0.38600
Ni	Ni	0.59821 0.16618 0.85604 1.06400
O 	O 	0.74964 0.37640 0.94381 -0.42300
O 	O 	0.59871 0.14654 0.89786 -0.41900
O 	O 	0.49738 0.24869 0.86411 -0.37500
O 	O 	0.64792 0.30802 0.91241 -0.70200
O 	O 	0.78461 0.34906 0.90250 -0.37400
O 	O 	0.53095 0.32668 0.91583 -0.37600
O 	O 	0.60954 0.42328 0.91476 -0.42000
Ni	Ni	0.67893 0.39665 0.92953 1.06800
H 	H 	0.62307 0.28304 0.84420 0.15500
H 	H 	0.64571 0.27501 0.92701 0.15700
C 	C 	0.55583 0.14757 0.91366 0.31000
O 	O 	0.73062 0.45272 0.89929 -0.40100
C 	C 	0.72845 0.20882 0.84353 0.27100
C 	C 	0.48483 0.19354 0.84894 0.27500
C 	C 	0.71821 0.44234 0.87234 0.29600
C 	C 	0.55522 0.39033 0.92190 0.27100
C 	C 	0.79355 0.37964 0.92742 0.31400
O 	O 	0.53508 0.19597 0.91197 -0.37200
O 	O 	0.50944 0.14928 0.85538 -0.40600
Ni	Ni	0.63309 0.30722 0.54520 1.10000
O 	O 	0.70235 0.32903 0.51875 -0.69900
Ni	Ni	0.76468 0.31535 0.54374 1.09800
O 	O 	0.58633 0.35083 0.52105 -0.37400
O 	O 	0.66593 0.44616 0.51935 -0.41600
O 	O 	0.58918 0.22032 0.52296 -0.37000
Ni	Ni	0.73199 0.41798 0.50304 1.06900
O 	O 	0.57467 0.17663 0.57621 -0.40600
O 	O 	0.79036 0.47951 0.53229 -0.39500
O 	O 	0.83795 0.35161 0.51936 -0.38000
O 	O 	0.69275 0.28525 0.56874 -0.70100
O 	O 	0.56732 0.27932 0.57333 -0.37900
O 	O 	0.81385 0.28594 0.57269 -0.36600
O 	O 	0.74494 0.18203 0.57460 -0.40900
Ni	Ni	0.66218 0.18996 0.57430 1.06500
H 	H 	0.69306 0.29638 0.50301 0.15300
H 	H 	0.70001 0.30960 0.58699 0.15500
C 	C 	0.81563 0.45969 0.55329 0.30300
O 	O 	0.65492 0.16930 0.53236 -0.42100
C 	C 	0.61039 0.41241 0.51322 0.29200
C 	C 	0.84434 0.39562 0.49937 0.30500
C 	C 	0.61104 0.17418 0.51720 0.30700
C 	C 	0.79215 0.22877 0.58521 0.27700
C 	C 	0.55349 0.22138 0.58557 0.27700
O 	O 	0.78820 0.40334 0.56520 -0.39700
O 	O 	0.79859 0.39866 0.48474 -0.42200
Ni	Ni	0.99800 0.93545 0.73141 1.09400
O 	O 	0.02316 0.87355 0.70663 -0.70600
Ni	Ni	0.06565 0.93504 0.67675 1.10000
O 	O 	0.95517 0.86048 0.75796 -0.36700
O 	O 	0.90012 0.79513 0.72203 -0.41100
O 	O 	0.07265 0.95353 0.75675 -0.36500
Ni	Ni	0.95548 0.80468 0.68838 1.06200
O 	O 	0.06813 0.07319 0.75634 -0.41100
O 	O 	0.91842 0.86829 0.67180 -0.40600
O 	O 	0.09021 0.86742 0.65529 -0.37500
O 	O 	0.03441 0.99650 0.69968 -0.69400
O 	O 	0.97380 0.00019 0.75485 -0.39200
O 	O 	0.12136 0.00726 0.65264 -0.36500
O 	O 	0.13993 0.10151 0.67872 -0.40200
Ni	Ni	0.09725 0.07362 0.71640 1.06700
H 	H 	0.04925 0.85431 0.71666 0.15400
H 	H 	0.00496 0.01064 0.68964 0.15800
C 	C 	0.94578 0.91363 0.65380 0.28300
O 	O 	0.14271 0.01396 0.72659 -0.42900
C 	C 	0.91859 0.80276 0.74851 0.27500
C 	C 	0.05098 0.80836 0.64922 0.28500
C 	C 	0.12702 0.97300 0.74765 0.27700
C 	C 	0.15897 0.06257 0.66352 0.28600
C 	C 	0.01240 0.05816 0.76241 0.29900
O 	O 	0.99977 0.92183 0.64696 -0.37100
O 	O 	0.99421 0.79744 0.65150 -0.40900
Ni	Ni	0.25596 0.68701 0.39415 1.10000
O 	O 	0.32996 0.72243 0.37112 -0.70700
Ni	Ni	0.38880 0.70513 0.39657 1.10100
O 	O 	0.20903 0.71192 0.36285 -0.37100
O 	O 	0.27099 0.82010 0.36559 -0.40900
O 	O 	0.24291 0.59881 0.37357 -0.39200
Ni	Ni	0.35590 0.81662 0.36476 1.06400
O 	O 	0.22408 0.62506 0.45672 -0.41900
O 	O 	0.36429 0.84118 0.40657 -0.41700
O 	O 	0.45630 0.73322 0.36951 -0.37800
O 	O 	0.31803 0.68383 0.42196 -0.70200
O 	O 	0.17973 0.64488 0.41594 -0.37500
O 	O 	0.43385 0.66188 0.42198 -0.37600
O 	O 	0.35297 0.56758 0.42365 -0.41700
Ni	Ni	0.28920 0.59885 0.44059 1.06900
H 	H 	0.32606 0.69784 0.35308 0.15600
H 	H 	0.32437 0.71954 0.43619 0.15700
C 	C 	0.41034 0.84116 0.42143 0.29200
O 	O 	0.22678 0.53751 0.41339 -0.40000
C 	C 	0.22341 0.77361 0.35480 0.27300
C 	C 	0.46927 0.78983 0.35609 0.27400
C 	C 	0.22747 0.54134 0.38591 0.30200
C 	C 	0.40912 0.59991 0.42946 0.27200
C 	C 	0.17632 0.62041 0.44160 0.29500
O 	O 	0.43088 0.79287 0.41836 -0.37300
O 	O 	0.44454 0.83358 0.36308 -0.40700
Ni	Ni	0.34094 0.69183 0.03745 1.09700
O 	O 	0.26996 0.65916 0.01012 -0.70600
Ni	Ni	0.21276 0.69190 0.02950 1.09800
O 	O 	0.38774 0.64599 0.01523 -0.36700
O 	O 	0.31340 0.54605 0.01494 -0.41300
O 	O 	0.38169 0.77289 0.01276 -0.36900
Ni	Ni	0.23471 0.56228 0.00939 1.06400
O 	O 	0.40561 0.82950 0.06412 -0.41400
O 	O 	0.22941 0.55772 0.05205 -0.41800
O 	O 	0.14653 0.65682 0.99991 -0.38000
O 	O 	0.28257 0.72159 0.05809 -0.69900
O 	O 	0.40838 0.72541 0.06645 -0.38300
O 	O 	0.16575 0.74240 0.04831 -0.36300
O 	O 	0.23966 0.83486 0.06418 -0.40400
Ni	Ni	0.31858 0.81838 0.06266 1.06500
H 	H 	0.27850 0.67730 0.99105 0.15500
H 	H 	0.27328 0.69979 0.07646 0.15200
C 	C 	0.18746 0.57024 0.06477 0.29000
O 	O 	0.31906 0.82860 0.02036 -0.42300
C 	C 	0.36341 0.58521 0.00523 0.29500
C 	C 	0.12836 0.59421 0.99157 0.28200
C 	C 	0.36051 0.81928 0.00570 0.28500
C 	C 	0.18900 0.78750 0.06809 0.28300
C 	C 	0.42670 0.78709 0.07568 0.28500
O 	O 	0.16692 0.61441 0.05471 -0.37000
O 	O 	0.14814 0.55220 0.00462 -0.41000
Ni	Ni	0.95596 0.03558 0.25122 1.09700
O 	O 	0.96771 0.11753 0.22771 -0.70700
Ni	Ni	0.92583 0.07606 0.19187 1.10000
O 	O 	0.00144 0.09335 0.28468 -0.36500
O 	O 	0.08086 0.14359 0.25754 -0.40700
O 	O 	0.88006 0.04738 0.26358 -0.39300
Ni	Ni	0.04914 0.16786 0.21964 1.06700
O 	O 	0.90118 0.87209 0.23912 -0.41200
O 	O 	0.06529 0.09020 0.20138 -0.40900
O 	O 	0.93226 0.16188 0.17265 -0.37200
O 	O 	0.92710 0.99492 0.21329 -0.70400
O 	O 	0.93699 0.95163 0.27465 -0.37800
O 	O 	0.86496 0.02198 0.16188 -0.37400
O 	O 	0.80443 0.96403 0.19597 -0.41600
Ni	Ni	0.85461 0.91983 0.21822 1.07000
H 	H 	0.94875 0.14680 0.23599 0.15500
H 	H 	0.95642 0.97758 0.20580 0.15200
C 	C 	0.04014 0.06222 0.17747 0.29300
O 	O 	0.82407 0.93890 0.25574 -0.39600
C 	C 	0.05363 0.13941 0.28149 0.26900
C 	C 	0.98228 0.21280 0.17551 0.26900
C 	C 	0.82948 0.99829 0.26476 0.30300
C 	C 	0.81416 0.97881 0.16934 0.27100
C 	C 	0.92816 0.89184 0.26396 0.28500
O 	O 	0.99309 0.07186 0.16730 -0.37600
O 	O 	0.03207 0.20316 0.18185 -0.39700
C 	C 	0.99893 0.36996 0.13179 -0.02200
C 	C 	0.01375 0.40146 0.10605 -0.03200
C 	C 	0.06454 0.45837 0.10531 0.00700
C 	C 	0.10050 0.48113 0.12963 0.01000
C 	C 	0.09007 0.44406 0.15416 -0.06400
C 	C 	0.03788 0.38884 0.15530 0.02700
S 	S 	0.95800 0.29043 0.13489 0.03400
C 	C 	0.98488 0.27815 0.16614 -0.08500
C 	C 	0.02998 0.33709 0.17462 -0.02100
S 	S 	0.16702 0.52884 0.11957 0.00100
C 	C 	0.15279 0.52271 0.08495 -0.07300
C 	C 	0.09370 0.48317 0.08018 -0.01200
H 	H 	0.98907 0.37981 0.08692 0.03700
H 	H 	0.12313 0.45513 0.17100 0.04300
H 	H 	0.06122 0.33970 0.19163 0.02100
H 	H 	0.07313 0.47086 0.05942 0.04500
C 	C 	0.58264 0.82231 0.11009 0.00100
C 	C 	0.62587 0.82091 0.12978 -0.05800
C 	C 	0.66925 0.88131 0.13797 0.01500
C 	C 	0.66657 0.94106 0.12825 -0.00200
C 	C 	0.62358 0.94271 0.10852 -0.05500
C 	C 	0.57968 0.88241 0.10054 0.01400
S 	S 	0.51587 0.76479 0.10655 0.02100
C 	C 	0.48149 0.81269 0.09273 -0.08100
C 	C 	0.52292 0.87680 0.09032 -0.01900
S 	S 	0.73250 0.99931 0.13323 0.02300
C 	C 	0.76620 0.95217 0.14843 -0.07700
C 	C 	0.72495 0.88755 0.14977 -0.02400
H 	H 	0.62663 0.77452 0.13782 0.04200
H 	H 	0.62262 0.98924 0.10075 0.04400
H 	H 	0.51246 0.91783 0.08195 0.03900
H 	H 	0.73437 0.84717 0.15948 0.02000
C 	C 	0.07770 0.83571 0.11356 -0.00500
C 	C 	0.04168 0.87318 0.11725 -0.05200
C 	C 	0.05478 0.91789 0.14016 0.00900
C 	C 	0.10456 0.92709 0.15759 -0.00100
C 	C 	0.14548 0.89760 0.15108 -0.05700
C 	C 	0.13054 0.84972 0.12936 0.01600
S 	S 	0.08414 0.79968 0.08339 0.03500
C 	C 	0.15104 0.79666 0.08994 -0.07800
C 	C 	0.17208 0.82809 0.11595 -0.02400
S 	S 	0.12037 0.99852 0.17497 0.01700
C 	C 	0.06487 0.01950 0.16202 -0.08100
C 	C 	0.03176 0.96936 0.14295 -0.01500
H 	H 	0.00680 0.87017 0.10210 0.04600
H 	H 	0.18838 0.91346 0.16160 0.04100
H 	H 	0.21756 0.84225 0.12315 0.02100
H 	H 	0.99251 0.96960 0.13177 0.03700
C 	C 	0.67964 0.97830 0.29761 0.00500
C 	C 	0.61844 0.94569 0.29690 -0.06000
C 	C 	0.59350 0.90610 0.31975 0.01800
C 	C 	0.62937 0.89607 0.34129 -0.00300
C 	C 	0.69066 0.91993 0.33967 -0.05300
C 	C 	0.71578 0.96391 0.31809 0.01200
S 	S 	0.71972 0.00599 0.26954 0.00700
C 	C 	0.78415 0.00575 0.28264 -0.07600
C 	C 	0.77459 0.97931 0.30966 -0.01400
S 	S 	0.58958 0.83082 0.35921 0.02800
C 	C 	0.52517 0.81451 0.34159 -0.07200
C 	C 	0.53476 0.86079 0.31996 -0.02700
H 	H 	0.59172 0.94871 0.27879 0.04300
H 	H 	0.71760 0.90319 0.35395 0.04600
H 	H 	0.80576 0.96217 0.32075 0.04500
H 	H 	0.50004 0.86400 0.30602 0.02500
C 	C 	0.13807 0.35893 0.36721 -0.00100
C 	C 	0.09182 0.30094 0.35905 -0.05600
C 	C 	0.10532 0.25349 0.34317 0.01500
C 	C 	0.16303 0.26680 0.33421 0.00100
C 	C 	0.20688 0.32910 0.33876 -0.05800
C 	C 	0.19420 0.37456 0.35624 0.01600
S 	S 	0.13040 0.42901 0.37720 0.02400
C 	C 	0.19742 0.48119 0.36917 -0.07500
C 	C 	0.22795 0.44319 0.35767 -0.02400
S 	S 	0.15958 0.21730 0.30680 0.00600
C 	C 	0.08707 0.17485 0.30645 -0.06900
C 	C 	0.06249 0.20161 0.32754 -0.02700
H 	H 	0.04675 0.29436 0.36370 0.04600
H 	H 	0.24801 0.34289 0.32792 0.04300
H 	H 	0.27340 0.46383 0.35161 0.03500
H 	H 	0.01568 0.19140 0.32871 0.04400
C 	C 	0.99756 0.77121 0.29741 -0.00500
C 	C 	0.04371 0.74674 0.29734 -0.05000
C 	C 	0.08274 0.76141 0.32070 0.01600
C 	C 	0.07712 0.80239 0.34262 0.00000
C 	C 	0.03623 0.83417 0.34078 -0.04800
C 	C 	0.99500 0.81664 0.31829 0.00900
S 	S 	0.96366 0.78427 0.26854 0.00900
C 	C 	0.94181 0.84358 0.28157 -0.07200
C 	C 	0.96347 0.85719 0.30938 -0.02100
S 	S 	0.14128 0.83237 0.36003 0.02400
C 	C 	0.17764 0.79367 0.34163 -0.07600
C 	C 	0.13889 0.75542 0.32047 -0.02000
H 	H 	0.05125 0.72107 0.27900 0.04400
H 	H 	0.03869 0.87403 0.35531 0.04700
H 	H 	0.96406 0.90053 0.32119 0.04800
H 	H 	0.15043 0.72376 0.30577 0.03500
C 	C 	0.51408 0.01639 0.46761 0.00800
C 	C 	0.45269 0.99796 0.46591 -0.05300
C 	C 	0.41857 0.94049 0.45098 0.00700
C 	C 	0.57789 0.11996 0.49891 -0.10400
C 	C 	0.50731 0.92000 0.43936 0.01100
C 	C 	0.54125 0.97740 0.45425 -0.05500
C 	C 	0.54894 0.07326 0.48435 0.04000
C 	C 	0.44572 0.90099 0.43776 -0.08500
H 	H 	0.43137 0.02777 0.47633 0.04700
H 	H 	0.37116 0.92646 0.44989 0.03400
H 	H 	0.52896 0.89070 0.42882 0.04400
H 	H 	0.58866 0.99133 0.45550 0.04600
C 	C 	0.00780 0.50370 0.47224 0.01900
C 	C 	0.05146 0.54443 0.49092 -0.05800
C 	C 	0.10653 0.58311 0.48097 0.01000
C 	C 	0.90236 0.43256 0.49015 -0.10000
C 	C 	0.07394 0.54096 0.43362 0.01200
C 	C 	0.01920 0.50213 0.44361 -0.05000
C 	C 	0.95069 0.46476 0.48226 0.03100
C 	C 	0.11794 0.58167 0.45223 -0.08300
H 	H 	0.04276 0.54629 0.51307 0.05000
H 	H 	0.14003 0.61438 0.49554 0.03200
H 	H 	0.08245 0.53864 0.41147 0.04400
H 	H 	0.98564 0.47081 0.42907 0.04100
C 	C 	0.51161 0.50351 0.47269 0.01100
C 	C 	0.45044 0.48018 0.47505 -0.05800
C 	C 	0.41693 0.51136 0.46079 0.00700
C 	C 	0.57507 0.44417 0.49929 -0.11000
C 	C 	0.50588 0.58935 0.44164 0.01100
C 	C 	0.53926 0.55804 0.45594 -0.05800
C 	C 	0.54598 0.47116 0.48726 0.03700
C 	C 	0.44446 0.56622 0.44402 -0.08800
H 	H 	0.42882 0.43799 0.48798 0.04700
H 	H 	0.36969 0.49330 0.46304 0.01700
H 	H 	0.52770 0.63126 0.42862 0.04100
H 	H 	0.58660 0.57615 0.45396 0.04300
C 	C 	0.87173 0.04509 0.65289 -0.00700
C 	C 	0.82913 0.07442 0.65038 -0.05600
C 	C 	0.84508 0.13636 0.63772 0.01300
C 	C 	0.90137 0.16565 0.62662 -0.00500
C 	C 	0.94019 0.13102 0.62527 -0.05700
C 	C 	0.92521 0.07074 0.63917 0.01000
S 	S 	0.85752 0.96507 0.65765 0.01200
C 	C 	0.91834 0.95998 0.64361 -0.07500
C 	C 	0.95166 0.02315 0.63407 -0.03400
S 	S 	0.89773 0.22050 0.60315 0.02900
C 	C 	0.82745 0.21225 0.60718 -0.08000
C 	C 	0.80345 0.16253 0.62671 -0.02400
H 	H 	0.78437 0.04848 0.65659 0.04100
H 	H 	0.97869 0.14829 0.61245 0.04500
H 	H 	0.99435 0.03495 0.62485 0.04800
H 	H 	0.75658 0.13955 0.62964 0.02000
C 	C 	0.40128 0.12445 0.61685 0.00500
C 	C 	0.35705 0.07902 0.63207 -0.05900
C 	C 	0.31419 0.10041 0.64348 0.01800
C 	C 	0.31951 0.16731 0.64206 -0.00300
C 	C 	0.36410 0.21278 0.62678 -0.05400
C 	C 	0.40619 0.19075 0.61484 0.01400
S 	S 	0.46599 0.11907 0.61024 0.00900
C 	C 	0.50213 0.19915 0.60361 -0.07600
C 	C 	0.46272 0.23298 0.60679 -0.01800
S 	S 	0.25338 0.17162 0.64686 0.01900
C 	C 	0.21671 0.09062 0.65087 -0.06900
C 	C 	0.25641 0.05734 0.64894 -0.02600
H 	H 	0.35431 0.02809 0.63372 0.04500
H 	H 	0.36657 0.26354 0.62477 0.04500
H 	H 	0.47426 0.28551 0.60352 0.04500
H 	H 	0.24390 0.00421 0.65052 0.04100
C 	C 	0.96391 0.55284 0.59497 0.00600
C 	C 	0.99783 0.58531 0.61850 -0.07100
C 	C 	0.03570 0.65112 0.61591 0.02900
C 	C 	0.03981 0.68291 0.58995 -0.01400
C 	C 	0.00159 0.65251 0.56728 -0.03100
C 	C 	0.96307 0.58716 0.57006 -0.00200
S 	S 	0.89870 0.49251 0.59715 0.02300
C 	C 	0.86780 0.50746 0.56754 -0.07800
C 	C 	0.90930 0.56046 0.55429 -0.01400
S 	S 	0.06180 0.76351 0.59689 0.04200
C 	C 	0.06802 0.76240 0.63188 -0.07500
C 	C 	0.05253 0.69587 0.63929 -0.03100
H 	H 	0.99041 0.56253 0.63891 0.04200
H 	H 	0.99754 0.68110 0.54929 0.03700
H 	H 	0.90037 0.58093 0.53477 0.04000
H 	H 	0.04235 0.67977 0.66066 0.02300
C 	C 	0.96041 0.49405 0.95271 0.00700
C 	C 	0.00829 0.47600 0.94571 -0.04900
C 	C 	0.06452 0.51234 0.95664 0.00800
C 	C 	0.85243 0.41868 0.93649 -0.10500
C 	C 	0.02568 0.58721 0.98034 0.02100
C 	C 	0.96945 0.55078 0.96938 -0.06300
C 	C 	0.90172 0.45281 0.94385 0.04000
C 	C 	0.07317 0.56681 0.97479 -0.08400
H 	H 	0.00174 0.43278 0.93246 0.04700
H 	H 	0.10094 0.49657 0.95194 0.01600
H 	H 	0.03167 0.62916 0.99428 0.04300
H 	H 	0.93268 0.56554 0.97455 0.04500
C 	C 	0.46081 0.98208 0.95589 0.01200
C 	C 	0.40023 0.96732 0.95845 -0.05600
C 	C 	0.36669 0.91201 0.97344 0.00600
C 	C 	0.52405 0.08970 0.92912 -0.10500
C 	C 	0.45400 0.88472 0.98254 0.01000
C 	C 	0.48739 0.94005 0.96754 -0.05700
C 	C 	0.49573 0.04070 0.94147 0.03700
C 	C 	0.39360 0.87112 0.98612 -0.08200
H 	H 	0.37922 0.99914 0.94917 0.04900
H 	H 	0.32009 0.90174 0.97567 0.03500
H 	H 	0.47554 0.85384 0.99218 0.04500
H 	H 	0.53408 0.95076 0.96539 0.04600
C 	C 	0.45836 0.49390 0.96330 0.01100
C 	C 	0.50568 0.52842 0.94663 -0.05700
C 	C 	0.53664 0.49451 0.93265 0.00500
C 	C 	0.39880 0.55596 0.99029 -0.10500
C 	C 	0.47248 0.39113 0.95177 0.00600
C 	C 	0.44161 0.42519 0.96570 -0.05700
C 	C 	0.42667 0.52872 0.97788 0.03600
C 	C 	0.52047 0.42564 0.93531 -0.08600
H 	H 	0.51860 0.58151 0.94454 0.04500
H 	H 	0.57315 0.52175 0.91981 0.03400
H 	H 	0.45968 0.33816 0.95417 0.03900
H 	H 	0.40489 0.39819 0.97850 0.04500
C 	C 	0.93343 0.11959 0.82084 -0.00400
C 	C 	0.88200 0.10893 0.83569 -0.05400
C 	C 	0.85379 0.15492 0.83270 0.01500
C 	C 	0.87504 0.20759 0.81425 0.00200
C 	C 	0.92032 0.21162 0.79597 -0.05800
C 	C 	0.95103 0.16823 0.80016 0.01600
S 	S 	0.96003 0.06100 0.81281 0.03400
C 	C 	0.99742 0.09617 0.78461 -0.08400
C 	C 	0.98695 0.15489 0.77965 -0.02500
S 	S 	0.82203 0.23781 0.80817 0.01700
C 	C 	0.77135 0.18748 0.82899 -0.07500
C 	C 	0.79570 0.14374 0.84118 -0.02200
H 	H 	0.86306 0.06481 0.84792 0.04500
H 	H 	0.92967 0.24514 0.77850 0.04200
H 	H 	0.99701 0.18109 0.76006 0.02200
H 	H 	0.77347 0.10737 0.85652 0.04200
C 	C 	0.28027 0.00548 0.78212 0.00200
C 	C 	0.33953 0.04658 0.78090 -0.05900
C 	C 	0.36116 0.09868 0.80059 0.01700
C 	C 	0.32378 0.11084 0.81996 -0.00500
C 	C 	0.26585 0.06785 0.82248 -0.05200
C 	C 	0.24312 0.01672 0.80228 0.01200
S 	S 	0.23870 0.97089 0.75398 0.00700
C 	C 	0.17324 0.96561 0.76612 -0.07200
C 	C 	0.18297 0.99277 0.79349 -0.01700
S 	S 	0.36463 0.16069 0.84523 0.03300
C 	C 	0.43038 0.17174 0.83184 -0.07500
C 	C 	0.42159 0.13242 0.80732 -0.02700
H 	H 	0.36745 0.03882 0.76490 0.04200
H 	H 	0.23797 0.07686 0.83819 0.04600
H 	H 	0.15027 0.00686 0.80421 0.04900
H 	H 	0.45667 0.12215 0.79697 0.02300
C 	C 	0.85747 0.68197 0.81098 -0.00400
C 	C 	0.83123 0.66162 0.83676 -0.05300
C 	C 	0.78136 0.60359 0.83701 0.01400
C 	C 	0.75642 0.57012 0.81172 0.00100
C 	C 	0.78264 0.59047 0.78594 -0.05700
C 	C 	0.83228 0.64858 0.78568 0.01500
S 	S 	0.89858 0.75949 0.80361 0.02700
C 	C 	0.88686 0.75286 0.76873 -0.07500
C 	C 	0.84970 0.68830 0.76171 -0.02800
S 	S 	0.71650 0.49253 0.81916 0.01600
C 	C 	0.72603 0.49918 0.85418 -0.07700
C 	C 	0.76410 0.56374 0.86101 -0.01800
H 	H 	0.85003 0.68870 0.85606 0.04500
H 	H 	0.76394 0.56329 0.76666 0.04200
H 	H 	0.83297 0.67191 0.74058 0.03300
H 	H 	0.78537 0.57811 0.88154 0.04300
