data_crystal

_cell_length_a 18.49116
_cell_length_b 16.45810
_cell_length_c 50.24921
_cell_angle_alpha 89.61787
_cell_angle_beta  89.62127
_cell_angle_gamma 119.49778

_symmetry_space_group_name_	'P 1'
_symmetry_space_group_name_H-M	'P 1'

loop_
_symmetry_equiv_pos_as_xyz
  x,y,z

loop_
_atom_site_label
_atom_site_type_symbol
_atom_site_fract_x
_atom_site_fract_y
_atom_site_fract_z
_atom_site_charge
C 	C 	0.16658 0.07424 0.78222 0.29800
Ni	Ni	0.02771 0.94149 0.74721 1.12100
Ni	Ni	0.15353 0.15799 0.73004 1.12600
O 	O 	0.09704 0.99236 0.78157 -0.33300
O 	O 	0.14193 0.24939 0.75354 -0.36200
O 	O 	0.16544 0.07310 0.70365 -0.37500
O 	O 	0.12733 0.21631 0.69867 -0.36100
O 	O 	0.04634 0.06333 0.74097 -0.72400
H 	H 	0.04675 0.08343 0.75938 0.16500
C 	C 	0.18707 0.58742 0.98901 0.30700
C 	C 	0.97637 0.21394 0.20000 0.32700
C 	C 	0.96675 0.11856 0.27509 0.30300
C 	C 	0.04655 0.03119 0.17060 0.32700
C 	C 	0.02773 0.91771 0.23936 0.30300
Ni	Ni	0.03957 0.10022 0.22372 1.12600
O 	O 	0.06096 0.10533 0.18429 -0.38200
O 	O 	0.89577 0.16104 0.20306 -0.34800
O 	O 	0.02568 0.21340 0.21849 -0.36000
O 	O 	0.95117 0.86162 0.23032 -0.35600
O 	O 	0.07526 0.00309 0.22926 -0.36100
O 	O 	0.91281 0.13165 0.26093 -0.34400
O 	O 	0.00255 0.94715 0.18096 -0.36300
O 	O 	0.92458 0.01030 0.22354 -0.72600
H 	H 	0.92077 0.98178 0.24114 0.16300
C 	C 	0.12727 0.35248 0.09646 0.02700
C 	C 	0.10947 0.41121 0.08056 0.06400
C 	C 	0.15838 0.45499 0.05792 -0.01300
C 	C 	0.08674 0.31886 0.12291 0.03200
N 	N 	0.04403 0.42962 0.08790 -0.01700
H 	H 	0.14891 0.50612 0.04711 0.05700
C 	C 	0.00421 0.24512 0.12511 0.05700
C 	C 	0.96723 0.21477 0.15035 0.01600
C 	C 	0.01137 0.25753 0.17356 -0.09400
N 	N 	0.95716 0.20181 0.10176 -0.01000
H 	H 	0.90525 0.15578 0.15188 0.06800
O 	O 	0.10275 0.42354 0.20930 -0.06300
O 	O 	0.98601 0.16759 0.08402 -0.08000
C 	C 	0.09758 0.04210 0.14701 -0.09400
C 	C 	0.05983 0.98643 0.12466 0.13100
C 	C 	0.10575 0.95981 0.10824 -0.07500
H 	H 	0.07535 0.91174 0.09211 0.08700
C 	C 	0.92526 0.07031 0.34896 -0.06700
C 	C 	0.96900 0.13208 0.30400 -0.07600
C 	C 	0.91949 0.05699 0.32136 0.11300
H 	H 	0.88863 0.01192 0.36229 0.08400
C 	C 	0.95470 0.20885 0.40364 0.06600
C 	C 	0.99686 0.26422 0.42550 -0.00100
H 	H 	0.97241 0.30408 0.43538 0.07500
C 	C 	0.02304 0.82344 0.27910 -0.00700
C 	C 	0.06718 0.87889 0.25703 -0.07600
H 	H 	0.95672 0.79718 0.28093 0.07900
N 	N 	0.25305 0.75612 0.28924 -0.02000
O 	O 	0.16843 0.91029 0.20752 -0.05600
O 	O 	0.32024 0.79899 0.27474 -0.06600
O 	O 	0.18897 0.68164 0.28032 -0.06900
C 	C 	0.07989 0.61670 0.49587 0.17900
C 	C 	0.07574 0.60756 0.46788 -0.09300
O 	O 	0.15345 0.64544 0.50885 -0.26600
H 	H 	0.17762 0.71381 0.51087 0.15700
C 	C 	0.10214 0.17182 0.63393 0.00300
N 	N 	0.11227 0.14523 0.58639 -0.01700
H 	H 	0.13703 0.13648 0.63842 0.07500
O 	O 	0.19185 0.17774 0.58366 -0.07700
O 	O 	0.06099 0.07711 0.57148 -0.07200
C 	C 	0.05591 0.43009 0.99102 0.17000
C 	C 	0.09623 0.52825 0.99421 -0.08200
O 	O 	0.10075 0.38415 0.98955 -0.25700
H 	H 	0.07683 0.64348 0.00467 0.09000
H 	H 	0.09985 0.36084 0.00786 0.16300
N 	N 	0.22749 0.53244 0.81191 -0.01700
H 	H 	0.21052 0.40560 0.77604 0.08500
O 	O 	0.27614 0.50264 0.82095 -0.06700
C 	C 	0.19476 0.15553 0.82613 0.12300
N 	N 	0.14979 0.20224 0.81852 -0.02300
O 	O 	0.17685 0.28839 0.82544 -0.08000
O 	O 	0.07761 0.15610 0.80737 -0.09400
C 	C 	0.15318 0.40635 0.77998 0.00200
O 	O 	0.24857 0.61997 0.81436 -0.06500
H 	H 	0.21257 0.20576 0.86642 0.09400
O 	O 	0.13586 0.94981 0.73124 -0.33600
O 	O 	0.88349 0.19222 0.09894 -0.08600
C 	C 	0.08125 0.17816 0.60748 0.06900
C 	C 	0.15268 0.46995 0.79834 0.06700
H 	H 	0.08952 0.32070 0.55648 0.08900
C 	C 	0.97961 0.15810 0.35935 0.03000
O 	O 	0.03003 0.11483 0.26352 -0.36100
N 	N 	0.19673 0.95205 0.23005 -0.01900
C 	C 	0.17782 0.00459 0.71111 0.31600
C 	C 	0.06725 0.16838 0.68176 0.32500
O 	O 	0.20579 0.11848 0.75984 -0.35100
C 	C 	0.14208 0.38351 0.43004 0.30800
C 	C 	0.14149 0.60101 0.45264 0.33000
Ni	Ni	0.20448 0.56474 0.40176 1.12900
O 	O 	0.16634 0.42941 0.45299 -0.33900
O 	O 	0.16148 0.42709 0.40661 -0.35300
O 	O 	0.21411 0.62985 0.46338 -0.35800
O 	O 	0.12154 0.55024 0.43097 -0.36800
O 	O 	0.24156 0.70075 0.40025 -0.37400
C 	C 	0.31234 0.78222 0.05602 0.32100
C 	C 	0.29891 0.52189 0.03847 0.30200
Ni	Ni	0.32707 0.77690 0.99897 1.13000
O 	O 	0.21757 0.67750 0.98458 -0.35600
O 	O 	0.27169 0.73968 0.03488 -0.37900
O 	O 	0.34785 0.59185 0.05368 -0.35300
O 	O 	0.32548 0.51095 0.01493 -0.34600
O 	O 	0.22790 0.54669 0.98026 -0.36000
C 	C 	0.18813 0.33081 0.08793 -0.07100
C 	C 	0.22650 0.44309 0.05139 -0.08300
C 	C 	0.23699 0.37478 0.06521 0.12600
H 	H 	0.19923 0.28198 0.09936 0.08400
C 	C 	0.09246 0.33477 0.17118 0.13100
C 	C 	0.13020 0.36347 0.14596 -0.07400
N 	N 	0.13563 0.38615 0.19420 -0.02400
H 	H 	0.19277 0.42211 0.14426 0.08900
O 	O 	0.21030 0.40128 0.19896 -0.08200
C 	C 	0.24279 0.95810 0.07191 -0.06400
C 	C 	0.23233 0.94761 0.09952 0.02600
C 	C 	0.25249 0.88613 0.11311 0.07100
C 	C 	0.28169 0.83505 0.09878 0.00300
C 	C 	0.28664 0.84085 0.07093 -0.09500
C 	C 	0.26731 0.90348 0.05744 0.11900
C 	C 	0.18973 0.99118 0.11343 0.03800
N 	N 	0.23999 0.87240 0.14128 -0.01600
H 	H 	0.29724 0.78802 0.10927 0.07700
N 	N 	0.27326 0.91263 0.02907 -0.03400
H 	H 	0.22805 0.00589 0.06146 0.08200
C 	C 	0.23064 0.05957 0.13294 0.06100
C 	C 	0.18414 0.08473 0.14971 0.00700
H 	H 	0.21427 0.13168 0.16609 0.07100
O 	O 	0.32881 0.99102 0.01829 -0.07900
O 	O 	0.21258 0.85233 0.01467 -0.11300
O 	O 	0.16522 0.83426 0.15131 -0.06900
O 	O 	0.30227 0.88930 0.15655 -0.05000
C 	C 	0.02661 0.23399 0.34189 0.06400
C 	C 	0.02161 0.22038 0.31438 -0.00200
C 	C 	0.99323 0.16911 0.38832 0.02500
N 	N 	0.08093 0.32458 0.35211 -0.01400
H 	H 	0.05899 0.27862 0.30109 0.07500
C 	C 	0.07878 0.28475 0.43023 -0.07300
C 	C 	0.10286 0.22098 0.42096 0.12100
C 	C 	0.06128 0.16511 0.39905 -0.06800
O 	O 	0.05112 0.37788 0.35955 -0.09300
C 	C 	0.19558 0.89704 0.27550 -0.06800
C 	C 	0.15209 0.84350 0.29788 0.02800
C 	C 	0.06469 0.80353 0.29921 0.06300
C 	C 	0.15304 0.90970 0.25439 0.12900
C 	C 	0.19866 0.83014 0.31991 0.02900
N 	N 	0.01816 0.74280 0.32087 -0.01800
H 	H 	0.26249 0.92739 0.27424 0.09700
C 	C 	0.24986 0.79048 0.31502 0.05900
C 	C 	0.29526 0.78093 0.33581 0.00000
H 	H 	0.33492 0.75112 0.33186 0.07100
O 	O 	0.26699 0.02994 0.23056 -0.07800
O 	O 	0.96702 0.75926 0.33464 -0.08100
O 	O 	0.02282 0.66778 0.32573 -0.08000
H 	H 	0.27825 0.83287 0.47940 0.15900
C 	C 	0.23947 0.99118 0.66866 0.00900
C 	C 	0.23935 0.98927 0.69656 -0.08100
H 	H 	0.18642 0.98632 0.65821 0.08200
O 	O 	0.26245 0.90993 0.75092 -0.06700
C 	C 	0.28313 0.13610 0.85834 0.02700
C 	C 	0.26563 0.06934 0.81420 -0.00100
C 	C 	0.21151 0.10275 0.80750 -0.07000
C 	C 	0.22793 0.16834 0.85181 -0.06200
O 	O 	0.36283 0.38019 0.88666 -0.07900
H 	H 	0.09346 0.41272 0.85348 0.09600
H 	H 	0.26457 0.01335 0.89818 0.09000
N 	N 	0.38863 0.32664 0.87633 -0.01800
C 	C 	0.30227 0.75545 0.38418 0.33000
C 	C 	0.32923 0.55620 0.36370 0.31000
Ni	Ni	0.27751 0.55634 0.45930 1.12100
O 	O 	0.38190 0.67449 0.47324 -0.36000
O 	O 	0.26294 0.56787 0.36671 -0.36200
O 	O 	0.29500 0.58071 0.42267 -0.72000
H 	H 	0.29916 0.52585 0.41715 0.17100
C 	C 	0.40542 0.77006 0.94846 0.29600
Ni	Ni	0.43606 0.72010 0.03887 1.12100
Ni	Ni	0.35047 0.60144 0.98349 1.12400
O 	O 	0.38280 0.78464 0.06164 -0.35800
O 	O 	0.37315 0.67754 0.94908 -0.34900
O 	O 	0.36972 0.81106 0.96139 -0.34100
O 	O 	0.42360 0.90048 0.01337 -0.34100
O 	O 	0.38236 0.70719 0.00558 -0.71000
H 	H 	0.43319 0.74757 0.99536 0.14300
N 	N 	0.30099 0.35466 0.05732 -0.02500
O 	O 	0.35470 0.35873 0.07461 -0.07900
O 	O 	0.30243 0.32663 0.03328 -0.06700
N 	N 	0.31871 0.10163 0.13620 -0.01400
O 	O 	0.36839 0.13938 0.11585 -0.07500
O 	O 	0.34942 0.10705 0.15976 -0.06100
O 	O 	0.31690 0.36112 0.36676 -0.08400
N 	N 	0.17492 0.22119 0.43158 -0.02300
H 	H 	0.08616 0.12610 0.38894 0.08600
O 	O 	0.16085 0.35816 0.35071 -0.08500
O 	O 	0.21405 0.18792 0.41776 -0.07800
O 	O 	0.19883 0.25016 0.45565 -0.07300
C 	C 	0.28356 0.80125 0.36202 -0.09000
C 	C 	0.23652 0.84620 0.36672 0.12700
C 	C 	0.19511 0.86135 0.34558 -0.07000
H 	H 	0.15944 0.89640 0.34919 0.08900
C 	C 	0.39578 0.89429 0.47912 0.17000
H 	H 	0.40884 0.02916 0.48674 0.07600
O 	O 	0.32263 0.86363 0.46570 -0.25200
O 	O 	0.37657 0.35265 0.43092 -0.25800
H 	H 	0.38950 0.34877 0.41197 0.18100
C 	C 	0.37790 0.00663 0.69544 -0.07500
C 	C 	0.38203 0.02136 0.66781 0.03000
C 	C 	0.31089 0.00922 0.65425 0.05700
C 	C 	0.30744 0.99220 0.70996 0.13500
N 	N 	0.31312 0.02215 0.62602 -0.01900
N 	N 	0.30818 0.98860 0.73839 -0.02300
O 	O 	0.36094 0.06142 0.75153 -0.08200
O 	O 	0.26789 0.95161 0.61087 -0.07600
O 	O 	0.35441 0.10565 0.61571 -0.07600
O 	O 	0.40844 0.43154 0.98402 -0.26800
C 	C 	0.31537 0.08350 0.90118 -0.06700
C 	C 	0.32329 0.15703 0.88478 0.02600
C 	C 	0.38246 0.24939 0.89135 0.06600
C 	C 	0.44171 0.26470 0.91075 -0.00900
C 	C 	0.44873 0.18909 0.92060 -0.07900
C 	C 	0.37804 0.09962 0.91956 0.12800
H 	H 	0.49154 0.33505 0.91408 0.06800
N 	N 	0.37124 0.02503 0.93629 -0.02600
C 	C 	0.30350 0.08817 0.83913 0.06600
N 	N 	0.36393 0.06020 0.84471 -0.01900
H 	H 	0.27859 0.02882 0.79998 0.08700
O 	O 	0.32651 0.93877 0.92890 -0.06600
O 	O 	0.40222 0.04272 0.96009 -0.07000
O 	O 	0.42737 0.34881 0.85347 -0.07700
O 	O 	0.34266 0.97220 0.84461 -0.07200
N 	N 	0.38813 0.42093 0.35620 -0.02400
O 	O 	0.06890 0.44008 0.52583 -0.09400
O 	O 	0.39776 0.84726 0.89755 -0.24900
C 	C 	0.04759 0.57019 0.99968 -0.06000
O 	O 	0.51020 0.66192 0.02673 -0.34400
C 	C 	0.40581 0.75774 0.46311 0.32400
Ni	Ni	0.39990 0.67751 0.41019 1.12700
O 	O 	0.37049 0.74871 0.38307 -0.36500
O 	O 	0.39188 0.59197 0.38075 -0.36200
O 	O 	0.35456 0.49839 0.45634 -0.34200
C 	C 	0.50146 0.61535 0.00446 0.32300
C 	C 	0.49683 0.91771 0.02333 0.31000
O 	O 	0.46916 0.63105 0.98332 -0.38200
O 	O 	0.51865 0.85264 0.02495 -0.35700
H 	H 	0.44530 0.98471 0.06536 0.07800
O 	O 	0.48466 0.04613 0.12133 -0.07200
C 	C 	0.34554 0.52970 0.33734 -0.07100
C 	C 	0.39184 0.48276 0.33535 0.12600
O 	O 	0.45565 0.42229 0.36403 -0.09100
N 	N 	0.23017 0.87580 0.39297 -0.02300
O 	O 	0.15801 0.85656 0.40268 -0.08200
C 	C 	0.43615 0.98460 0.48937 -0.03000
C 	C 	0.43366 0.83832 0.48060 -0.09100
C 	C 	0.45216 0.40551 0.44264 0.17600
H 	H 	0.46778 0.28687 0.45138 0.08000
C 	C 	0.46343 0.06406 0.65388 0.02700
H 	H 	0.43161 0.01315 0.70586 0.09200
H 	H 	0.43614 0.94067 0.63160 0.09600
O 	O 	0.45328 0.22674 0.68118 -0.07500
C 	C 	0.47902 0.82880 0.93183 -0.08000
C 	C 	0.47169 0.88040 0.91062 0.17600
H 	H 	0.40208 0.81212 0.88223 0.17400
H 	H 	0.40645 0.45225 0.96558 0.15500
O 	O 	0.44133 0.12296 0.84794 -0.08300
O 	O 	0.04845 0.47279 0.10994 -0.08200
C 	C 	0.07665 0.26276 0.75257 0.31000
C 	C 	0.47654 0.01537 0.63330 -0.07200
C 	C 	0.53126 0.19734 0.91854 0.30300
O 	O 	0.52865 0.17011 0.51136 -0.36700
C 	C 	0.42760 0.54162 0.44378 0.30400
O 	O 	0.40464 0.77012 0.43735 -0.35900
O 	O 	0.45918 0.62951 0.43500 -0.36100
C 	C 	0.51038 0.00546 0.06378 -0.00900
C 	C 	0.54438 0.00202 0.03916 -0.07800
C 	C 	0.44652 0.50248 0.31369 -0.06600
C 	C 	0.33962 0.57670 0.31483 -0.00300
H 	H 	0.29624 0.60297 0.31474 0.07600
H 	H 	0.48654 0.47171 0.31292 0.09000
O 	O 	0.29684 0.92482 0.40679 -0.06900
C 	C 	0.51462 0.01983 0.50097 -0.10600
C 	C 	0.48322 0.50169 0.44653 -0.08300
C 	C 	0.49503 0.36197 0.45279 -0.04700
C 	C 	0.52124 0.15940 0.65742 0.06700
N 	N 	0.51424 0.20872 0.67974 -0.01600
O 	O 	0.48710 0.94884 0.58025 -0.08500
O 	O 	0.47250 0.37913 0.60293 -0.06800
H 	H 	0.52847 0.01303 0.89000 0.07900
C 	C 	0.49121 0.46650 0.98925 0.18200
H 	H 	0.49566 0.35204 0.97058 0.08100
O 	O 	0.53975 0.51343 0.91853 -0.09300
O 	O 	0.11995 0.67793 0.79977 -0.06800
C 	C 	0.53742 0.96990 0.90453 -0.02900
C 	C 	0.53675 0.55286 0.00212 -0.08900
N 	N 	0.51482 0.99499 0.11226 -0.01500
C 	C 	0.53714 0.06444 0.61363 0.12900
C 	C 	0.07916 0.34151 0.76757 -0.07100
O 	O 	0.55980 0.16850 0.93828 -0.35000
C 	C 	0.50740 0.86957 0.49481 -0.05500
N 	N 	0.55022 0.01494 0.59250 -0.02600
C 	C 	0.53046 0.41650 0.98140 -0.04300
O 	O 	0.56369 0.20821 0.89462 -0.35700
O 	O 	0.57276 0.24277 0.69735 -0.07600
C 	C 	0.56602 0.12092 0.50536 0.31100
Ni	Ni	0.57028 0.27420 0.53899 1.12700
O 	O 	0.58269 0.36846 0.56669 -0.35700
O 	O 	0.58142 0.37068 0.51168 -0.36700
O 	O 	0.56117 0.18879 0.56904 -0.36100
C 	C 	0.55595 0.01642 0.08689 0.05900
O 	O 	0.62925 0.08609 0.99096 -0.13100
O 	O 	0.49875 0.91828 0.12473 -0.07300
C 	C 	0.45726 0.57140 0.29501 0.02600
C 	C 	0.39824 0.60209 0.29421 0.06500
C 	C 	0.54816 0.96016 0.50496 0.19100
H 	H 	0.53601 0.82598 0.49647 0.08000
C 	C 	0.56181 0.55512 0.45785 -0.05400
C 	C 	0.56817 0.41355 0.46715 -0.09700
C 	C 	0.58266 0.20769 0.63799 0.00300
C 	C 	0.58368 0.16265 0.61452 -0.07700
N 	N 	0.54158 0.41774 0.61612 -0.02200
C 	C 	0.55794 0.85802 0.94251 -0.06600
H 	H 	0.56580 0.81589 0.95765 0.07800
N 	N 	0.61628 0.57400 0.91248 -0.02100
O 	O 	0.55059 0.72408 0.82302 -0.07400
O 	O 	0.66516 0.62887 0.93073 -0.09400
O 	O 	0.62531 0.03462 0.58591 -0.09500
O 	O 	0.60140 0.76550 0.63960 -0.07000
C 	C 	0.07785 0.46964 0.80396 0.03100
C 	C 	0.59383 0.36495 0.48623 0.32800
C 	C 	0.61279 0.21742 0.58954 0.30900
C 	C 	0.63154 0.04980 0.03657 0.12100
O 	O 	0.58330 0.70087 0.68043 -0.07800
C 	C 	0.61217 0.00600 0.91860 -0.10600
H 	H 	0.65734 0.72621 0.88314 0.08600
O 	O 	0.58550 0.72454 0.78001 -0.06700
O 	O 	0.65385 0.63767 0.33543 -0.08100
C 	C 	0.60413 0.51132 0.46829 0.18000
N 	N 	0.60737 0.74793 0.80456 -0.01500
O 	O 	0.54580 0.38093 0.63862 -0.08000
H 	H 	0.58722 0.62956 0.46042 0.08100
H 	H 	0.62420 0.28198 0.64003 0.08100
C 	C 	0.60702 0.50842 0.60835 0.12500
N 	N 	0.63073 0.74157 0.65981 -0.01800
C 	C 	0.61989 0.58476 0.00873 -0.04600
C 	C 	0.62463 0.94666 0.93599 0.19700
O 	O 	0.62672 0.31479 0.47780 -0.35700
C 	C 	0.53814 0.62524 0.28093 0.02700
H 	H 	0.48498 0.59125 0.24173 0.09400
O 	O 	0.57481 0.70645 0.33815 -0.08400
C 	C 	0.61551 0.45271 0.98571 -0.09500
C 	C 	0.64340 0.58829 0.88527 0.12200
N 	N 	0.61132 0.67122 0.32386 -0.01600
C 	C 	0.63843 0.52665 0.58202 -0.08800
O 	O 	0.62322 0.31836 0.97097 -0.37500
C 	C 	0.64553 0.45429 0.56704 0.32300
O 	O 	0.64438 0.16306 0.49687 -0.34900
N 	N 	0.67035 0.07812 0.01078 -0.02200
H 	H 	0.67967 0.13130 0.13099 0.09400
N 	N 	0.40263 0.66575 0.27395 -0.01900
C 	C 	0.06524 0.50313 0.82977 0.03400
C 	C 	0.05964 0.45092 0.85265 -0.07000
C 	C 	0.65969 0.67114 0.87211 -0.07100
O 	O 	0.34799 0.63686 0.25509 -0.06300
C 	C 	0.64022 0.03980 0.08457 0.03000
N 	N 	0.87548 0.19716 0.39635 -0.01700
H 	H 	0.00053 0.59183 0.43349 0.08200
O 	O 	0.02348 0.95096 0.65446 -0.08700
O 	O 	0.86762 0.23363 0.37427 -0.07700
C 	C 	0.00261 0.59071 0.45503 -0.05300
O 	O 	0.89109 0.91993 0.29833 -0.10700
N 	N 	0.86293 0.96737 0.31106 -0.02300
C 	C 	0.86599 0.43102 0.88157 0.31200
C 	C 	0.66690 0.44916 0.88578 0.31200
C 	C 	0.67154 0.10759 0.91752 0.31600
C 	C 	0.65927 0.40961 0.97242 0.32800
C 	C 	0.85284 0.39411 0.96976 0.31400
Ni	Ni	0.68996 0.27771 0.88752 1.11900
Ni	Ni	0.67499 0.24886 0.95380 1.12800
Ni	Ni	0.77738 0.45339 0.92816 1.12600
O 	O 	0.81330 0.34396 0.87502 -0.34900
O 	O 	0.83877 0.48368 0.89255 -0.37200
O 	O 	0.86559 0.43923 0.94671 -0.36400
O 	O 	0.68297 0.39187 0.87185 -0.35700
O 	O 	0.67971 0.45716 0.91157 -0.37200
O 	O 	0.78181 0.31525 0.97584 -0.34800
O 	O 	0.69006 0.15200 0.89427 -0.34700
O 	O 	0.70441 0.15328 0.93977 -0.35100
O 	O 	0.73615 0.46206 0.96445 -0.37100
O 	O 	0.72429 0.32215 0.92249 -0.71400
H 	H 	0.77325 0.31323 0.92208 0.15800
C 	C 	0.83201 0.26990 0.53697 0.30300
C 	C 	0.85264 0.49428 0.51256 0.32600
Ni	Ni	0.72017 0.30653 0.49870 1.11900
Ni	Ni	0.75620 0.37748 0.55970 1.12500
O 	O 	0.82444 0.29947 0.51283 -0.34300
O 	O 	0.80530 0.29194 0.55897 -0.36600
O 	O 	0.67721 0.30432 0.59050 -0.36700
O 	O 	0.78367 0.45040 0.49939 -0.36000
O 	O 	0.85686 0.46523 0.53669 -0.36500
O 	O 	0.71889 0.47274 0.55806 -0.37900
O 	O 	0.68111 0.29867 0.53360 -0.71900
H 	H 	0.67510 0.23810 0.53915 0.16500
C 	C 	0.90299 0.89597 0.70415 0.32400
C 	C 	0.89309 0.96341 0.77754 0.31000
Ni	Ni	0.95786 0.07887 0.72806 1.12900
O 	O 	0.99599 0.09815 0.68992 -0.36600
O 	O 	0.96653 0.88650 0.71158 -0.34200
O 	O 	0.87916 0.94448 0.71868 -0.36800
O 	O 	0.01661 0.21839 0.73499 -0.34800
O 	O 	0.91413 0.90480 0.76627 -0.34000
O 	O 	0.90636 0.04174 0.76519 -0.35100
C 	C 	0.75587 0.84080 0.24254 0.30700
C 	C 	0.79174 0.96911 0.17546 0.31100
Ni	Ni	0.84428 0.04703 0.22927 1.12000
Ni	Ni	0.89767 0.90403 0.20241 1.12800
O 	O 	0.77929 0.92542 0.25207 -0.34000
O 	O 	0.78124 0.82918 0.21875 -0.35000
O 	O 	0.76392 0.96996 0.19937 -0.33700
O 	O 	0.85151 0.94800 0.17204 -0.35400
O 	O 	0.98467 0.41217 0.07126 -0.08300
C 	C 	0.67972 0.06636 0.05954 -0.06700
C 	C 	0.68332 0.02500 0.10722 0.02300
H 	H 	0.74625 0.09407 0.05788 0.09700
C 	C 	0.70611 0.95478 0.10637 0.07500
C 	C 	0.74283 0.93838 0.12857 0.00200
C 	C 	0.75323 0.98793 0.15216 -0.06900
C 	C 	0.72769 0.05634 0.15314 0.11700
C 	C 	0.69681 0.07710 0.13033 -0.05800
N 	N 	0.68976 0.89812 0.08329 -0.01400
H 	H 	0.76070 0.88483 0.12772 0.08400
N 	N 	0.73177 0.10395 0.17727 -0.02600
O 	O 	0.74836 0.10257 0.00752 -0.09500
O 	O 	0.67505 0.06152 0.19558 -0.07700
O 	O 	0.77840 0.19422 0.17807 -0.07700
O 	O 	0.75079 0.89728 0.07051 -0.07400
O 	O 	0.61354 0.84183 0.07633 -0.10700
N 	N 	0.97336 0.95188 0.11966 -0.02100
O 	O 	0.94297 0.00822 0.12040 -0.08600
O 	O 	0.92539 0.86456 0.11379 -0.08200
C 	C 	0.61177 0.67800 0.29546 0.06600
C 	C 	0.68493 0.74120 0.28212 -0.00300
C 	C 	0.68364 0.76003 0.25500 -0.07400
C 	C 	0.61140 0.70392 0.24021 0.13000
C 	C 	0.54042 0.63388 0.25311 -0.06700
H 	H 	0.74221 0.77709 0.29300 0.08500
N 	N 	0.60830 0.72145 0.21246 -0.02200
O 	O 	0.45846 0.75360 0.27516 -0.07000
O 	O 	0.60856 0.66356 0.19502 -0.07600
O 	O 	0.59699 0.78996 0.20478 -0.06000
O 	O 	0.78420 0.92910 0.31690 -0.08200
O 	O 	0.81318 0.15792 0.41300 -0.08800
O 	O 	0.62339 0.99231 0.51716 -0.27300
H 	H 	0.60974 0.97450 0.53616 0.17800
C 	C 	0.93076 0.55661 0.49783 -0.09400
C 	C 	0.00724 0.59046 0.51071 -0.04900
C 	C 	0.93063 0.56733 0.46991 0.17600
H 	H 	0.00974 0.59091 0.53225 0.08400
O 	O 	0.85978 0.55178 0.45708 -0.27400
H 	H 	0.86317 0.61376 0.45598 0.16000
O 	O 	0.67671 0.56305 0.48179 -0.26900
H 	H 	0.72134 0.58318 0.46814 0.16300
C 	C 	0.02338 0.27175 0.55634 -0.08000
C 	C 	0.98789 0.20249 0.57619 0.03800
C 	C 	0.90343 0.13376 0.57434 0.06400
C 	C 	0.85319 0.14493 0.55554 -0.00200
C 	C 	0.88517 0.22742 0.54035 -0.08000
C 	C 	0.97218 0.28425 0.53816 0.12700
C 	C 	0.03032 0.21758 0.60196 0.02200
N 	N 	0.86620 0.06044 0.59392 -0.01500
H 	H 	0.78692 0.09640 0.55560 0.07400
N 	N 	0.00811 0.35913 0.51903 -0.02500
C 	C 	0.07281 0.20490 0.65469 -0.08300
C 	C 	0.03216 0.25586 0.64865 0.12700
C 	C 	0.01085 0.26166 0.62232 -0.07200
N 	N 	0.00851 0.29753 0.66944 -0.02800
H 	H 	0.97530 0.29628 0.61788 0.08600
O 	O 	0.98618 0.34361 0.49423 -0.08200
O 	O 	0.80059 0.04758 0.60714 -0.07500
O 	O 	0.89912 0.00817 0.59905 -0.06700
O 	O 	0.06418 0.35599 0.68562 -0.06900
O 	O 	0.93213 0.28063 0.67138 -0.07700
C 	C 	0.63935 0.58055 0.62693 -0.07300
C 	C 	0.69668 0.67183 0.61877 0.03100
C 	C 	0.71203 0.69258 0.59138 0.05900
C 	C 	0.68399 0.61963 0.57311 -0.00000
C 	C 	0.75088 0.73985 0.63873 0.03000
N 	N 	0.75645 0.78738 0.58219 -0.01700
H 	H 	0.70226 0.63487 0.55234 0.07500
H 	H 	0.62223 0.56507 0.64777 0.09400
C 	C 	0.71636 0.76512 0.66003 0.06400
C 	C 	0.76618 0.81391 0.68157 0.00100
C 	C 	0.85144 0.84235 0.68146 -0.08300
C 	C 	0.88714 0.82336 0.65912 0.13000
C 	C 	0.83640 0.77025 0.63827 -0.06700
H 	H 	0.73858 0.83038 0.69830 0.07800
N 	N 	0.97515 0.86126 0.65698 -0.01700
H 	H 	0.86350 0.75218 0.62172 0.08900
O 	O 	0.82015 0.81464 0.56625 -0.07800
O 	O 	0.72956 0.84467 0.58820 -0.06100
O 	O 	0.00623 0.80574 0.65512 -0.08600
C 	C 	0.92371 0.42658 0.98765 -0.08900
C 	C 	0.96970 0.37991 0.98769 -0.03800
C 	C 	0.96121 0.51908 0.99675 0.18400
H 	H 	0.94016 0.30682 0.98240 0.08700
O 	O 	0.91491 0.56287 0.99964 -0.26800
H 	H 	0.89598 0.55196 0.01849 0.16800
O 	O 	0.70217 0.97347 0.94576 -0.26800
H 	H 	0.70290 0.99875 0.96365 0.18800
C 	C 	0.65934 0.53472 0.00075 0.18200
H 	H 	0.65502 0.65033 0.01901 0.08700
O 	O 	0.74111 0.56737 0.00699 -0.25900
H 	H 	0.73990 0.53742 0.02430 0.16300
C 	C 	0.00792 0.41575 0.78840 -0.07400
C 	C 	0.00706 0.34992 0.77089 0.12500
N 	N 	0.93159 0.28862 0.75766 -0.02200
H 	H 	0.95108 0.41815 0.79192 0.09300
C 	C 	0.02911 0.56116 0.83034 0.05400
C 	C 	0.97009 0.54657 0.85018 0.00500
C 	C 	0.94929 0.47626 0.86946 -0.08100
C 	C 	0.00021 0.43549 0.87234 0.11800
N 	N 	0.04487 0.62676 0.80912 -0.01800
H 	H 	0.93542 0.58378 0.84920 0.07300
N 	N 	0.98788 0.37370 0.89424 -0.02300
O 	O 	0.91401 0.31424 0.73520 -0.06600
O 	O 	0.87625 0.21262 0.76957 -0.08500
O 	O 	0.98860 0.40102 0.91851 -0.08100
O 	O 	0.97963 0.29168 0.88999 -0.07300
O 	O 	0.98425 0.63562 0.79921 -0.08200
C 	C 	0.80612 0.84367 0.84202 -0.06800
C 	C 	0.72533 0.78093 0.83382 0.02600
C 	C 	0.69356 0.80282 0.81110 0.07000
C 	C 	0.74807 0.87588 0.79405 0.00100
C 	C 	0.83314 0.92692 0.79982 -0.07200
C 	C 	0.86003 0.91686 0.82515 0.12400
C 	C 	0.68334 0.68507 0.84517 0.03000
H 	H 	0.72571 0.88745 0.77531 0.07600
N 	N 	0.94312 0.97814 0.83334 -0.02300
H 	H 	0.82932 0.83096 0.86043 0.08300
C 	C 	0.68088 0.61087 0.83055 0.06600
C 	C 	0.66293 0.52750 0.84356 0.00100
C 	C 	0.65255 0.51924 0.87137 -0.08100
N 	N 	0.70267 0.62242 0.80287 -0.01600
H 	H 	0.66384 0.47215 0.83226 0.07900
O 	O 	0.95873 0.05040 0.84765 -0.07300
O 	O 	0.99894 0.95235 0.83095 -0.07700
O 	O 	0.77972 0.67503 0.79545 -0.08300
O 	O 	0.64728 0.57233 0.78538 -0.06700
