data_crystal

_cell_length_a 18.46487
_cell_length_b 18.87693
_cell_length_c 34.12806
_cell_angle_alpha 95.43317
_cell_angle_beta  95.43390
_cell_angle_gamma 126.42700

_symmetry_space_group_name_	'P 1'
_symmetry_space_group_name_H-M	'P 1'

loop_
_symmetry_equiv_pos_as_xyz
  x,y,z

loop_
_atom_site_label
_atom_site_type_symbol
_atom_site_fract_x
_atom_site_fract_y
_atom_site_fract_z
_atom_site_charge
C 	C 	0.88796 0.98476 0.97836 0.14600
C 	C 	0.98081 0.03348 0.97561 -0.07200
C 	C 	0.01758 0.98845 0.96585 0.12900
C 	C 	0.96378 0.89530 0.96281 -0.04400
C 	C 	0.87379 0.84703 0.96950 0.09900
C 	C 	0.83414 0.89103 0.97536 -0.04200
H 	H 	0.02371 0.10602 0.98027 0.14300
H 	H 	0.99243 0.86044 0.95586 0.12100
H 	H 	0.76263 0.85299 0.97793 0.13400
C 	C 	0.97141 0.05199 0.49486 0.04400
C 	C 	0.91269 0.96290 0.49990 0.02100
C 	C 	0.94592 0.91344 0.50401 0.06300
C 	C 	0.03819 0.95324 0.50308 0.02000
C 	C 	0.09798 0.04356 0.49977 0.04300
C 	C 	0.06438 0.09277 0.49534 0.00800
H 	H 	0.84101 0.93181 0.50014 0.11500
H 	H 	0.06351 0.91429 0.50518 0.11800
H 	H 	0.11016 0.16218 0.49196 0.12700
Cu	Cu	0.73199 0.32365 0.95868 0.94100
Cu	Cu	0.69600 0.25407 0.04378 0.91000
Cu	Cu	0.58065 0.29060 0.00128 0.92500
Cu	Cu	0.55579 0.29580 0.91313 0.95500
C 	C 	0.67950 0.27722 0.87294 0.31100
O 	O 	0.77388 0.44950 0.95250 -0.28800
C 	C 	0.62128 0.32453 0.09004 0.30800
O 	O 	0.58790 0.24492 0.94932 -0.62700
O 	O 	0.71185 0.34171 0.01296 -0.62900
O 	O 	0.79924 0.27346 0.97223 -0.28400
O 	O 	0.68778 0.17152 0.00346 -0.34200
O 	O 	0.63960 0.31600 0.87559 -0.25700
O 	O 	0.45442 0.24864 0.98811 -0.29000
C 	C 	0.39824 0.20047 0.95353 0.30600
C 	C 	0.72314 0.47643 0.95849 0.27800
O 	O 	0.63489 0.41750 0.95787 -0.33200
O 	O 	0.42629 0.21982 0.91930 -0.28700
O 	O 	0.73223 0.28528 0.90462 -0.26900
C 	C 	0.75693 0.19712 0.98527 0.29100
O 	O 	0.57797 0.32552 0.05704 -0.28400
O 	O 	0.68511 0.31304 0.08913 -0.34100
H 	H 	0.55202 0.17889 0.94292 0.25200
H 	H 	0.75210 0.40445 0.02778 0.20600
Cu	Cu	0.64386 0.21810 0.50350 0.94700
Cu	Cu	0.71584 0.25009 0.41817 0.91900
Cu	Cu	0.68738 0.37163 0.46222 0.92400
Cu	Cu	0.64874 0.37745 0.54479 0.93400
C 	C 	0.67833 0.26650 0.58903 0.31100
O 	O 	0.51145 0.16354 0.50606 -0.29800
C 	C 	0.66989 0.34340 0.37431 0.30500
O 	O 	0.71841 0.35843 0.51487 -0.62900
O 	O 	0.62905 0.24121 0.44922 -0.63100
O 	O 	0.70083 0.15828 0.49216 -0.29500
O 	O 	0.80244 0.26668 0.46014 -0.35400
O 	O 	0.63350 0.30029 0.58434 -0.30300
O 	O 	0.75263 0.49905 0.47710 -0.29500
C 	C 	0.73827 0.53895 0.50576 0.31400
C 	C 	0.47649 0.20495 0.49692 0.30200
O 	O 	0.53112 0.29119 0.49674 -0.33200
O 	O 	0.70594 0.50271 0.53724 -0.30200
O 	O 	0.67770 0.21797 0.55831 -0.27600
C 	C 	0.77962 0.20237 0.48007 0.31100
O 	O 	0.66591 0.38463 0.40668 -0.27200
O 	O 	0.66050 0.26854 0.37426 -0.31100
H 	H 	0.78494 0.39648 0.52594 0.24800
H 	H 	0.56541 0.20447 0.43402 0.25100
C 	C 	0.75876 0.32855 0.70087 0.04500
C 	C 	0.72049 0.24398 0.71073 0.10400
C 	C 	0.68399 0.16916 0.67985 -0.09100
C 	C 	0.67374 0.17819 0.63966 0.09500
C 	C 	0.70697 0.26195 0.63001 0.03000
C 	C 	0.75824 0.33913 0.66071 -0.05000
C 	C 	0.70824 0.23273 0.75264 0.10200
C 	C 	0.64899 0.07807 0.68935 0.79100
H 	H 	0.63647 0.11938 0.61601 0.12300
C 	C 	0.80895 0.43248 0.65100 0.77800
H 	H 	0.78660 0.38568 0.72448 0.14100
C 	C 	0.78465 0.27247 0.78414 -0.08600
C 	C 	0.77370 0.28341 0.82396 0.09600
C 	C 	0.68673 0.24792 0.83278 0.04100
C 	C 	0.60860 0.19375 0.80175 -0.05000
C 	C 	0.62065 0.19214 0.76177 0.04800
C 	C 	0.87924 0.30996 0.77557 0.79000
H 	H 	0.83337 0.32297 0.84788 0.13400
C 	C 	0.51248 0.14105 0.81083 0.77800
H 	H 	0.56224 0.16167 0.73769 0.13700
F 	F 	0.88038 0.49552 0.68216 -0.35200
F 	F 	0.74932 0.45368 0.64494 -0.41100
F 	F 	0.84583 0.43752 0.61695 -0.40200
F 	F 	0.55990 0.03335 0.69543 -0.38300
F 	F 	0.70292 0.08644 0.72322 -0.35100
F 	F 	0.65020 0.02682 0.65797 -0.36200
F 	F 	0.48574 0.19561 0.81456 -0.40100
F 	F 	0.50887 0.10875 0.84593 -0.39900
F 	F 	0.45089 0.06821 0.78028 -0.35700
F 	F 	0.93267 0.31259 0.80788 -0.35000
F 	F 	0.92189 0.39612 0.76857 -0.37400
F 	F 	0.87407 0.25752 0.74257 -0.34800
C 	C 	0.54948 0.30369 0.18996 0.03800
C 	C 	0.62314 0.38752 0.21269 0.10400
C 	C 	0.68339 0.45766 0.19287 -0.09600
C 	C 	0.67810 0.43761 0.15145 0.08400
C 	C 	0.60916 0.35133 0.12936 0.01600
C 	C 	0.53925 0.28663 0.14805 -0.05700
C 	C 	0.64580 0.39575 0.25659 0.09800
C 	C 	0.75872 0.55169 0.21600 0.79000
H 	H 	0.73038 0.48782 0.13678 0.10700
C 	C 	0.45514 0.19894 0.12346 0.78200
H 	H 	0.50313 0.25043 0.20517 0.13800
C 	C 	0.58897 0.39332 0.28254 -0.08600
C 	C 	0.59907 0.37813 0.32159 0.09100
C 	C 	0.66937 0.37312 0.33592 0.03200
C 	C 	0.73459 0.38978 0.31198 -0.05700
C 	C 	0.71863 0.39502 0.27171 0.04600
C 	C 	0.51300 0.39964 0.26802 0.79000
H 	H 	0.55039 0.36719 0.34037 0.13400
C 	C 	0.81887 0.39770 0.32853 0.77800
H 	H 	0.76139 0.39608 0.25172 0.13000
F 	F 	0.41677 0.21625 0.09267 -0.37000
F 	F 	0.38926 0.15049 0.14630 -0.36500
F 	F 	0.47948 0.14726 0.10761 -0.39300
F 	F 	0.83498 0.55739 0.23021 -0.38200
F 	F 	0.73043 0.57370 0.24794 -0.35200
F 	F 	0.78318 0.61411 0.19151 -0.35600
F 	F 	0.79559 0.31305 0.32758 -0.41500
F 	F 	0.85500 0.44493 0.36757 -0.41200
F 	F 	0.88656 0.44279 0.30604 -0.36500
F 	F 	0.49031 0.42904 0.29992 -0.35200
F 	F 	0.43601 0.31608 0.24854 -0.38000
F 	F 	0.53957 0.45952 0.24210 -0.35500
C 	C 	0.82020 0.75592 0.47225 0.02000
C 	C 	0.88252 0.81810 0.50671 0.09500
C 	C 	0.88522 0.78835 0.54300 -0.11100
C 	C 	0.83575 0.69604 0.54232 0.08500
C 	C 	0.77744 0.63369 0.50715 0.01200
C 	C 	0.76348 0.66381 0.47279 -0.05200
C 	C 	0.69160 0.59853 0.43599 0.77600
H 	H 	0.81684 0.77943 0.44484 0.13700
H 	H 	0.84505 0.67265 0.56877 0.12100
C 	C 	0.94548 0.85433 0.58180 0.79600
F 	F 	0.66392 0.63953 0.41426 -0.36600
F 	F 	0.61458 0.52559 0.44660 -0.40400
F 	F 	0.72810 0.56917 0.41171 -0.39300
F 	F 	0.94225 0.92600 0.58565 -0.37000
F 	F 	0.03486 0.88553 0.58227 -0.37000
F 	F 	0.91685 0.81390 0.61469 -0.35800
C 	C 	0.93176 0.14658 0.52467 0.01700
C 	C 	0.93552 0.10311 0.49019 0.10100
C 	C 	0.89496 0.09945 0.45199 -0.11900
C 	C 	0.84448 0.13295 0.44946 0.08700
C 	C 	0.83682 0.17239 0.48411 -0.00300
C 	C 	0.88452 0.18349 0.52200 -0.04600
C 	C 	0.87916 0.22785 0.55997 0.77400
H 	H 	0.96285 0.14854 0.55374 0.14500
H 	H 	0.80914 0.12664 0.42059 0.08900
C 	C 	0.90188 0.05616 0.41413 0.77900
F 	F 	0.94789 0.25274 0.59134 -0.36300
F 	F 	0.79550 0.16824 0.57076 -0.39900
F 	F 	0.88878 0.30443 0.55420 -0.40200
F 	F 	0.85246 0.96494 0.41291 -0.38500
F 	F 	0.99251 0.09291 0.41354 -0.39900
F 	F 	0.86774 0.06908 0.37992 -0.38000
C 	C 	0.22037 0.07260 0.46346 0.01600
C 	C 	0.19526 0.08555 0.49942 0.09800
C 	C 	0.26249 0.13637 0.53483 -0.11500
C 	C 	0.35427 0.17417 0.53325 0.08300
C 	C 	0.37931 0.16115 0.49734 0.00200
C 	C 	0.31220 0.10996 0.46202 -0.05300
C 	C 	0.33875 0.09622 0.42283 0.77300
H 	H 	0.16802 0.03337 0.43665 0.12800
H 	H 	0.40691 0.21467 0.55990 0.09300
C 	C 	0.23709 0.15326 0.57387 0.79000
F 	F 	0.26347 0.04314 0.39192 -0.38100
F 	F 	0.37985 0.05486 0.42732 -0.41900
F 	F 	0.39959 0.17830 0.41213 -0.41600
F 	F 	0.16743 0.07289 0.58324 -0.37100
F 	F 	0.20821 0.20553 0.57001 -0.39500
F 	F 	0.31064 0.19735 0.60558 -0.37900
C 	C 	0.80450 0.62913 0.99843 0.03700
C 	C 	0.76261 0.57180 0.96095 0.02500
C 	C 	0.74861 0.60296 0.92699 -0.07000
C 	C 	0.77528 0.69084 0.93161 0.03500
C 	C 	0.82071 0.74946 0.96874 0.05800
C 	C 	0.83227 0.71744 0.00291 -0.07200
C 	C 	0.87755 0.77843 0.04381 0.78100
H 	H 	0.81463 0.60449 0.02420 0.10700
H 	H 	0.76541 0.71561 0.90584 0.12500
C 	C 	0.70683 0.54319 0.88577 0.78000
F 	F 	0.86653 0.73086 0.07413 -0.37200
F 	F 	0.83907 0.82146 0.05132 -0.36000
F 	F 	0.97032 0.84174 0.04493 -0.38200
F 	F 	0.61635 0.47210 0.88480 -0.42600
F 	F 	0.75491 0.51059 0.87733 -0.40400
F 	F 	0.70936 0.58909 0.85595 -0.37600
C 	C 	0.82382 0.13154 0.01848 0.08300
C 	C 	0.79144 0.14353 0.98276 0.00200
C 	C 	0.78371 0.09716 0.94548 -0.05500
C 	C 	0.81282 0.04291 0.94487 0.04100
C 	C 	0.84571 0.03142 0.98061 0.04000
C 	C 	0.84939 0.07444 0.01789 -0.08700
C 	C 	0.88159 0.06042 0.05697 0.76800
H 	H 	0.82851 0.16653 0.04681 0.08800
H 	H 	0.81224 0.01125 0.91652 0.13000
C 	C 	0.74932 0.10907 0.90630 0.77700
F 	F 	0.87158 0.10059 0.08990 -0.38100
F 	F 	0.97317 0.09672 0.06061 -0.38300
F 	F 	0.83079 0.96978 0.05753 -0.34900
F 	F 	0.81405 0.19466 0.89987 -0.39300
F 	F 	0.66755 0.09602 0.90757 -0.40500
F 	F 	0.73388 0.04843 0.87405 -0.37000
C 	C 	0.17345 0.02959 0.98340 -0.01100
C 	C 	0.11368 0.03879 0.95997 0.07200
C 	C 	0.14527 0.09187 0.92983 -0.10700
C 	C 	0.23963 0.14758 0.92932 0.08800
C 	C 	0.29910 0.13863 0.95307 0.01300
C 	C 	0.26331 0.07188 0.97693 -0.03600
C 	C 	0.31820 0.04160 0.99320 0.73900
H 	H 	0.14888 0.98713 0.00568 0.16900
H 	H 	0.26663 0.19712 0.91015 0.11700
C 	C 	0.07984 0.08949 0.89812 0.78300
F 	F 	0.26245 0.95954 0.00485 -0.34700
F 	F 	0.38386 0.10378 0.02597 -0.38100
F 	F 	0.36089 0.03252 0.96407 -0.41400
F 	F 	0.06279 0.14798 0.91289 -0.40300
F 	F 	0.99793 0.00400 0.88657 -0.40100
F 	F 	0.11738 0.11510 0.86417 -0.36600
