data_crystal

_cell_length_a 25.04497
_cell_length_b 25.55434
_cell_length_c 17.53440
_cell_angle_alpha 95.48462
_cell_angle_beta  95.48845
_cell_angle_gamma 125.80744

_symmetry_space_group_name_	'P 1'
_symmetry_space_group_name_H-M	'P 1'

loop_
_symmetry_equiv_pos_as_xyz
  x,y,z

loop_
_atom_site_label
_atom_site_type_symbol
_atom_site_fract_x
_atom_site_fract_y
_atom_site_fract_z
_atom_site_charge
C 	C 	0.97405 0.03839 0.97263 0.05800
C 	C 	0.02844 0.07225 0.93391 -0.09200
C 	C 	0.06048 0.04453 0.91139 0.04600
C 	C 	0.98054 0.94681 0.96159 0.05600
C 	C 	0.94979 0.97541 0.98560 -0.10800
H 	H 	0.04538 0.11969 0.92063 0.05200
H 	H 	0.06088 0.95991 0.90930 0.05500
H 	H 	0.90663 0.94849 0.01349 0.07000
C 	C 	0.91917 0.97954 0.38307 0.02200
C 	C 	0.98907 0.02310 0.40868 -0.05400
C 	C 	0.02557 0.99901 0.42845 0.01500
C 	C 	0.99171 0.93117 0.42448 -0.05900
C 	C 	0.92192 0.88768 0.40036 0.02800
C 	C 	0.88580 0.91183 0.37968 -0.06800
H 	H 	0.01517 0.07552 0.41287 0.04500
H 	H 	0.01957 0.91208 0.43861 0.04800
H 	H 	0.83203 0.87783 0.35927 0.04900
Cu	Cu	0.63808 0.25383 0.03705 0.93100
Cu	Cu	0.73333 0.27566 0.91339 0.85600
Cu	Cu	0.67901 0.34389 0.91891 0.88600
Cu	Cu	0.64228 0.38140 0.06096 0.89900
C 	C 	0.64584 0.31506 0.18742 0.19700
O 	O 	0.54031 0.21938 0.01139 -0.34300
C 	C 	0.69004 0.29557 0.76691 0.19400
O 	O 	0.69505 0.35496 0.03210 -0.63200
O 	O 	0.64649 0.25339 0.92682 -0.65200
O 	O 	0.67520 0.20467 0.05779 -0.35700
O 	O 	0.76910 0.28201 0.01695 -0.43400
O 	O 	0.61611 0.33748 0.15262 -0.35300
O 	O 	0.71691 0.43469 0.91349 -0.38000
C 	C 	0.73566 0.48036 0.97416 0.27500
C 	C 	0.52132 0.24927 0.97223 0.26500
O 	O 	0.56610 0.30951 0.96234 -0.40000
O 	O 	0.69888 0.46765 0.02857 -0.37700
O 	O 	0.64756 0.26954 0.14830 -0.32100
C 	C 	0.73722 0.23066 0.05043 0.29400
O 	O 	0.67105 0.32757 0.80532 -0.34300
O 	O 	0.71256 0.26705 0.80298 -0.39200
H 	H 	0.74294 0.38416 0.05748 0.16000
H 	H 	0.60707 0.21836 0.88684 0.17800
Cu	Cu	0.72040 0.32252 0.41007 0.92700
Cu	Cu	0.69641 0.23601 0.54526 0.86300
Cu	Cu	0.63692 0.30228 0.53641 0.89000
Cu	Cu	0.62317 0.36314 0.40452 0.89400
C 	C 	0.66328 0.32960 0.26505 0.19500
O 	O 	0.78198 0.42247 0.43038 -0.36100
C 	C 	0.68457 0.28977 0.68952 0.19400
O 	O 	0.62406 0.29220 0.42435 -0.63800
O 	O 	0.72419 0.32056 0.52285 -0.64300
O 	O 	0.74594 0.26321 0.38267 -0.36500
O 	O 	0.66681 0.18667 0.44288 -0.43900
O 	O 	0.65680 0.37177 0.30431 -0.35500
O 	O 	0.54801 0.27762 0.54283 -0.37900
C 	C 	0.51434 0.28839 0.49228 0.28500
C 	C 	0.77035 0.45730 0.47615 0.28100
O 	O 	0.71108 0.42899 0.49509 -0.38900
O 	O 	0.54594 0.33846 0.45578 -0.38600
O 	O 	0.69802 0.31169 0.29934 -0.32300
C 	C 	0.71018 0.20314 0.39659 0.29100
O 	O 	0.65369 0.30986 0.65039 -0.34300
O 	O 	0.71341 0.26698 0.65448 -0.39100
H 	H 	0.58488 0.24826 0.39608 0.16400
H 	H 	0.76366 0.35950 0.55920 0.17800
C 	C 	0.87108 0.70992 0.38889 0.00200
C 	C 	0.88667 0.66553 0.38825 -0.05700
C 	C 	0.87162 0.62950 0.44875 0.01400
C 	C 	0.84826 0.64323 0.51190 0.00100
C 	C 	0.83400 0.68879 0.51298 -0.06200
C 	C 	0.84719 0.72320 0.45127 0.02600
S 	S 	0.90494 0.77295 0.34245 -0.01400
C 	C 	0.88647 0.81662 0.39554 -0.00200
C 	C 	0.85592 0.78352 0.45541 -0.06200
S 	S 	0.80684 0.57650 0.55130 0.01600
C 	C 	0.81894 0.52933 0.49406 -0.07600
C 	C 	0.85570 0.56570 0.43918 -0.02300
H 	H 	0.90613 0.65654 0.34018 0.04500
H 	H 	0.81364 0.69730 0.56035 0.04600
H 	H 	0.84916 0.80603 0.50540 0.04600
H 	H 	0.86010 0.54335 0.38681 0.04500
C 	C 	0.84854 0.07707 0.32547 0.00300
C 	C 	0.85255 0.13444 0.33032 -0.05500
C 	C 	0.80351 0.13478 0.36234 0.01200
C 	C 	0.75538 0.08119 0.39318 0.00200
C 	C 	0.75085 0.02373 0.38812 -0.06000
C 	C 	0.80002 0.02323 0.35667 0.03000
S 	S 	0.91313 0.07429 0.32307 -0.01300
C 	C 	0.88095 0.00414 0.35680 0.00600
C 	C 	0.81823 0.98199 0.37437 -0.06900
S 	S 	0.69342 0.08667 0.40226 -0.00000
C 	C 	0.72559 0.15766 0.37035 -0.07600
C 	C 	0.78757 0.17868 0.35047 -0.02200
H 	H 	0.89134 0.17648 0.30846 0.04700
H 	H 	0.71248 0.98217 0.41100 0.04300
H 	H 	0.82020 0.22408 0.32979 0.04700
C 	C 	0.32254 0.17325 0.41207 0.00300
C 	C 	0.25790 0.15166 0.38041 -0.06100
C 	C 	0.20417 0.10003 0.40832 0.02900
C 	C 	0.21593 0.07441 0.46962 0.00200
C 	C 	0.28105 0.10325 0.50926 -0.05600
C 	C 	0.33471 0.15165 0.47764 0.01300
S 	S 	0.39263 0.24547 0.40811 0.01200
C 	C 	0.44143 0.25129 0.48600 -0.07100
C 	C 	0.40202 0.19492 0.51859 -0.02400
S 	S 	0.14695 0.03338 0.50770 -0.01500
C 	C 	0.09957 0.04451 0.44722 0.00400
C 	C 	0.13851 0.08253 0.39491 -0.06400
H 	H 	0.24998 0.17598 0.33834 0.04800
H 	H 	0.28959 0.09058 0.56402 0.04500
H 	H 	0.42101 0.18537 0.56931 0.04400
H 	H 	0.11989 0.09595 0.34820 0.04800
C 	C 	0.85929 0.65797 0.93239 -0.02100
C 	C 	0.87337 0.70767 0.89133 -0.04700
C 	C 	0.88767 0.76537 0.93302 0.00300
C 	C 	0.88183 0.77019 0.01192 0.02100
C 	C 	0.86762 0.72042 0.05294 -0.06500
C 	C 	0.85406 0.66296 0.01147 0.03300
S 	S 	0.81488 0.57881 0.89275 0.02800
C 	C 	0.79127 0.54879 0.97387 -0.09200
C 	C 	0.81571 0.60134 0.03504 -0.01200
S 	S 	0.92641 0.84936 0.05182 0.00200
C 	C 	0.95340 0.87958 0.97174 -0.02600
C 	C 	0.92696 0.82709 0.90992 -0.04800
H 	H 	0.87573 0.70270 0.82993 0.04300
H 	H 	0.86530 0.72541 0.11436 0.05000
H 	H 	0.79946 0.59507 0.09071 0.04000
H 	H 	0.93743 0.83314 0.85157 0.04200
C 	C 	0.79373 0.12422 0.99450 -0.03800
C 	C 	0.79731 0.07273 0.97045 -0.04300
C 	C 	0.86150 0.08813 0.97570 -0.00300
C 	C 	0.91876 0.15190 0.00882 0.02300
C 	C 	0.91366 0.20004 0.04392 -0.07200
C 	C 	0.84993 0.18575 0.03359 0.03900
S 	S 	0.72577 0.11786 0.00834 0.02500
C 	C 	0.76442 0.19375 0.06076 -0.07900
C 	C 	0.83400 0.22513 0.07115 -0.03200
S 	S 	0.98257 0.14866 0.03129 0.00200
C 	C 	0.94128 0.06796 0.99803 -0.02800
C 	C 	0.87425 0.04090 0.96851 -0.04500
H 	H 	0.75245 0.02288 0.95026 0.03800
H 	H 	0.95697 0.24583 0.07898 0.04900
H 	H 	0.87138 0.27621 0.09839 0.04300
C 	C 	0.22884 0.11572 0.83467 0.00300
C 	C 	0.28414 0.11458 0.83462 -0.05700
C 	C 	0.34726 0.17063 0.87310 0.01400
C 	C 	0.35366 0.22512 0.91256 0.00700
C 	C 	0.29729 0.22232 0.92188 -0.06300
C 	C 	0.23448 0.16737 0.88127 0.02600
S 	S 	0.15037 0.04883 0.82459 -0.01500
C 	C 	0.12025 0.08234 0.87471 -0.00800
C 	C 	0.17347 0.14861 0.90369 -0.06000
S 	S 	0.42482 0.26897 0.97723 -0.00100
C 	C 	0.45053 0.22260 0.95766 -0.06800
C 	C 	0.40264 0.17002 0.89733 -0.02500
H 	H 	0.27752 0.07004 0.81058 0.04500
H 	H 	0.30156 0.25930 0.96362 0.04400
H 	H 	0.17114 0.17883 0.94896 0.04200
H 	H 	0.40707 0.13255 0.87244 0.03500
C 	C 	0.03623 0.98162 0.92547 -0.09300
H 	H 	0.79139 0.94351 0.40775 0.04600
H 	H 	0.83672 0.98975 0.94172 0.03700
