data_crystal

_cell_length_a 18.36051
_cell_length_b 17.43099
_cell_length_c 47.59378
_cell_angle_alpha 90.73880
_cell_angle_beta  91.03294
_cell_angle_gamma 110.82059

_symmetry_space_group_name_	'P 1'
_symmetry_space_group_name_H-M	'P 1'

loop_
_symmetry_equiv_pos_as_xyz
  x,y,z

loop_
_atom_site_label
_atom_site_type_symbol
_atom_site_fract_x
_atom_site_fract_y
_atom_site_fract_z
_atom_site_charge
O 	O 	0.08245 0.88248 0.75947 -0.69700
Ni	Ni	0.09959 0.98411 0.78307 1.09800
O 	O 	0.13024 0.78900 0.71721 -0.39500
Ni	Ni	0.18338 0.88661 0.74568 1.07100
O 	O 	0.17907 0.98018 0.72111 -0.41800
O 	O 	0.18528 0.97559 0.80928 -0.39600
O 	O 	0.01574 0.99092 0.75579 -0.71300
O 	O 	0.08804 0.07760 0.80717 -0.36300
H 	H 	0.05637 0.83193 0.77004 0.16300
H 	H 	0.03048 0.04525 0.74692 0.17600
C 	C 	0.19763 0.05542 0.73187 0.29300
C 	C 	0.06466 0.77801 0.70317 0.31400
C 	C 	0.25247 0.97830 0.79939 0.29900
C 	C 	0.01791 0.07239 0.81489 0.29700
O 	O 	0.18186 0.06762 0.75845 -0.36800
O 	O 	0.26059 0.97143 0.77211 -0.41300
Ni	Ni	0.36963 0.73702 0.39645 1.09700
O 	O 	0.31295 0.63745 0.37152 -0.70800
Ni	Ni	0.21401 0.65675 0.36225 1.10000
O 	O 	0.45979 0.69559 0.40389 -0.37300
O 	O 	0.37661 0.57530 0.42141 -0.41400
O 	O 	0.42131 0.79260 0.36083 -0.38400
Ni	Ni	0.28627 0.53470 0.39137 1.06500
O 	O 	0.34489 0.91644 0.41523 -0.41200
O 	O 	0.22541 0.56871 0.42142 -0.42100
O 	O 	0.17005 0.56069 0.33497 -0.37500
O 	O 	0.26574 0.74930 0.39106 -0.70500
O 	O 	0.42707 0.84279 0.41857 -0.39800
O 	O 	0.12575 0.69710 0.35101 -0.37200
O 	O 	0.21027 0.82713 0.34400 -0.41300
Ni	Ni	0.28247 0.86235 0.37980 1.07000
H 	H 	0.34162 0.63575 0.35424 0.16000
H 	H 	0.23812 0.73866 0.40906 0.14700
C 	C 	0.15595 0.57030 0.41634 0.30200
O 	O 	0.38032 0.90050 0.35569 -0.39800
C 	C 	0.44803 0.62650 0.41722 0.28400
C 	C 	0.17612 0.48979 0.34120 0.29700
C 	C 	0.43720 0.87097 0.35658 0.31200
C 	C 	0.13843 0.77389 0.34513 0.29900
C 	C 	0.39118 0.88809 0.43029 0.28800
O 	O 	0.13646 0.58771 0.39122 -0.36600
O 	O 	0.18787 0.47305 0.36767 -0.40800
Ni	Ni	0.34229 0.68545 0.13512 1.09900
O 	O 	0.24648 0.64494 0.10820 -0.69600
Ni	Ni	0.17884 0.70169 0.12449 1.10000
O 	O 	0.39743 0.61919 0.11399 -0.36800
O 	O 	0.29050 0.50184 0.11223 -0.40900
O 	O 	0.38395 0.77553 0.10614 -0.40100
Ni	Ni	0.18907 0.52712 0.10615 1.06900
O 	O 	0.38933 0.80500 0.19051 -0.41900
O 	O 	0.16741 0.52315 0.14814 -0.41100
O 	O 	0.09515 0.66910 0.09363 -0.37700
O 	O 	0.26649 0.72723 0.15416 -0.70200
O 	O 	0.44157 0.73517 0.16030 -0.37500
O 	O 	0.13493 0.78665 0.13973 -0.38100
O 	O 	0.25493 0.88524 0.13744 -0.41900
Ni	Ni	0.32153 0.84282 0.16441 1.07100
H 	H 	0.25992 0.66509 0.08897 0.14600
H 	H 	0.24775 0.69534 0.17131 0.15800
C 	C 	0.11146 0.54565 0.15791 0.30400
O 	O 	0.41289 0.88302 0.13745 -0.38600
C 	C 	0.35645 0.54923 0.10141 0.28500
C 	C 	0.07726 0.59670 0.08116 0.28200
C 	C 	0.41174 0.85462 0.11171 0.30400
C 	C 	0.17970 0.86459 0.14093 0.28600
C 	C 	0.44978 0.78947 0.18103 0.31600
O 	O 	0.10268 0.61379 0.14944 -0.36600
O 	O 	0.08377 0.53419 0.09506 -0.39800
O 	O 	0.04370 0.21373 0.23920 -0.36300
O 	O 	0.09717 0.09623 0.22062 -0.40500
O 	O 	0.00173 0.10645 0.19086 -0.35900
Ni	Ni	0.04510 0.03935 0.25607 1.07200
O 	O 	0.06747 0.14712 0.27725 -0.41000
C 	C 	0.06943 0.21480 0.26520 0.31600
C 	C 	0.06097 0.08223 0.19579 0.30300
C 	C 	0.92528 0.37246 0.17453 -0.04600
C 	C 	0.97820 0.43892 0.16067 0.15300
C 	C 	0.04917 0.48664 0.17410 -0.09200
C 	C 	0.06247 0.47300 0.20239 -0.06400
C 	C 	0.00769 0.40860 0.21662 0.17900
O 	O 	0.96273 0.45371 0.13339 -0.28500
H 	H 	0.11582 0.51106 0.21319 0.05400
H 	H 	0.93493 0.49307 0.13467 0.15500
C 	C 	0.14632 0.92818 0.14807 -0.11100
C 	C 	0.06561 0.90526 0.15174 -0.06700
C 	C 	0.03537 0.95970 0.16464 0.16700
C 	C 	0.08593 0.03756 0.17400 -0.11700
C 	C 	0.16459 0.06434 0.16701 -0.05700
C 	C 	0.19520 0.01027 0.15415 0.15500
H 	H 	0.02664 0.84399 0.14582 0.07400
H 	H 	0.20310 0.12575 0.17306 0.06200
O 	O 	0.27249 0.03787 0.14743 -0.28300
H 	H 	0.30066 0.03177 0.16476 0.12400
C 	C 	0.14566 0.42193 0.32085 -0.10600
C 	C 	0.18253 0.42523 0.29510 -0.06600
C 	C 	0.15528 0.35921 0.27588 0.18200
C 	C 	0.09042 0.28987 0.28240 -0.11100
C 	C 	0.05193 0.28824 0.30769 -0.05700
C 	C 	0.07919 0.35385 0.32686 0.16800
H 	H 	0.23331 0.47816 0.29026 0.05100
O 	O 	0.19475 0.36053 0.25158 -0.28900
H 	H 	0.00241 0.23459 0.31296 0.04100
O 	O 	0.03956 0.35242 0.35115 -0.27800
H 	H 	0.06167 0.32401 0.36497 0.14500
H 	H 	0.17051 0.38602 0.23748 0.16400
C 	C 	0.07311 0.79600 0.33447 -0.12100
C 	C 	0.04201 0.77067 0.30737 -0.03500
C 	C 	0.98439 0.79786 0.29627 0.13400
C 	C 	0.03789 0.83765 0.35194 0.18100
H 	H 	0.06462 0.73284 0.29451 0.05500
O 	O 	0.95722 0.77669 0.26917 -0.27600
O 	O 	0.06341 0.85705 0.37929 -0.32100
H 	H 	0.99437 0.81812 0.25722 0.11500
C 	C 	0.42113 0.92762 0.45778 -0.11400
C 	C 	0.37016 0.93847 0.47811 0.09700
C 	C 	0.40123 0.98179 0.50316 -0.10500
C 	C 	0.28295 0.90450 0.47322 -0.19900
H 	H 	0.36281 0.99367 0.51828 0.05400
H 	H 	0.47252 0.17278 0.50226 0.06600
H 	H 	0.25170 0.90151 0.49319 0.06400
H 	H 	0.26392 0.84112 0.46425 0.05400
H 	H 	0.26551 0.94445 0.45864 0.06700
C 	C 	0.01821 0.55496 0.47581 -0.08800
C 	C 	0.00011 0.47267 0.48315 0.01500
C 	C 	0.02463 0.42004 0.46609 0.01900
C 	C 	0.07246 0.45226 0.44324 -0.00700
C 	C 	0.09514 0.53585 0.43708 -0.10800
C 	C 	0.06533 0.58699 0.45274 0.09600
H 	H 	0.09403 0.41280 0.43072 0.03200
C 	C 	0.08745 0.67663 0.44604 -0.20100
H 	H 	0.99791 0.59473 0.48868 0.04400
C 	C 	0.09134 0.49457 0.53599 -0.18100
H 	H 	0.05250 0.70580 0.45804 0.06500
H 	H 	0.07711 0.68390 0.42333 0.07100
H 	H 	0.14996 0.70952 0.45152 0.05300
H 	H 	0.11660 0.49212 0.55720 0.06500
H 	H 	0.10938 0.55987 0.52992 0.06600
H 	H 	0.11606 0.46125 0.52111 0.06600
C 	C 	0.55608 0.56315 0.48539 0.00100
H 	H 	0.43733 0.50648 0.52080 0.05400
C 	C 	0.53548 0.51010 0.46156 0.02500
C 	C 	0.51624 0.53905 0.43611 -0.01700
C 	C 	0.51106 0.61742 0.43498 -0.10400
C 	C 	0.54468 0.67424 0.45730 0.09900
C 	C 	0.52495 0.42057 0.46394 -0.17200
H 	H 	0.49526 0.49698 0.41830 0.02500
H 	H 	0.40437 0.39786 0.58158 0.08800
H 	H 	0.52211 0.39114 0.44290 0.05800
H 	H 	0.46998 0.38784 0.47489 0.06100
H 	H 	0.57442 0.41316 0.47588 0.06000
H 	H 	0.49310 0.76749 0.45766 0.07600
C 	C 	0.38777 0.22521 0.68935 -0.11000
C 	C 	0.32191 0.17538 0.67376 -0.05200
C 	C 	0.25539 0.12530 0.68751 0.16000
C 	C 	0.25497 0.12427 0.71709 -0.09800
C 	C 	0.31688 0.18213 0.73244 -0.06300
C 	C 	0.38300 0.23270 0.71863 0.16400
H 	H 	0.32425 0.17121 0.65107 0.06600
O 	O 	0.19284 0.07409 0.67204 -0.27800
H 	H 	0.31626 0.18399 0.75520 0.07300
O 	O 	0.44573 0.28368 0.73407 -0.30600
H 	H 	0.43764 0.33691 0.73534 0.14700
H 	H 	0.15832 0.10607 0.66895 0.14400
C 	C 	0.03994 0.58271 0.05309 -0.10000
C 	C 	0.07682 0.63162 0.03030 0.08100
C 	C 	0.03949 0.61773 0.00383 -0.07900
C 	C 	0.15637 0.69764 0.03398 -0.19300
H 	H 	0.06657 0.65618 0.98640 0.04900
H 	H 	0.19780 0.67187 0.04374 0.04100
H 	H 	0.15265 0.74859 0.04742 0.06700
H 	H 	0.18056 0.72360 0.01352 0.06100
C 	C 	0.47074 0.00648 0.05275 -0.07600
C 	C 	0.53375 0.98893 0.04194 -0.01400
C 	C 	0.56315 0.93554 0.05644 0.03100
C 	C 	0.52547 0.89604 0.08050 -0.01600
C 	C 	0.45920 0.90941 0.09027 -0.10300
C 	C 	0.43325 0.96727 0.07689 0.08900
H 	H 	0.54618 0.85278 0.09113 0.04400
C 	C 	0.36386 0.98483 0.08751 -0.21600
H 	H 	0.44939 0.04883 0.04185 0.05000
C 	C 	0.53142 0.98380 0.98903 0.00200
C 	C 	0.46541 0.90192 0.98901 -0.16100
H 	H 	0.52686 0.99473 0.94397 0.03500
H 	H 	0.35451 0.03580 0.07604 0.08000
H 	H 	0.37316 0.00311 0.11009 0.09900
H 	H 	0.31051 0.92928 0.08469 0.07600
H 	H 	0.61816 0.88608 0.02498 0.06100
H 	H 	0.45095 0.87481 0.96745 0.05700
H 	H 	0.41258 0.90967 0.99761 0.06000
H 	H 	0.48155 0.85774 0.00203 0.05700
C 	C 	0.40633 0.43366 0.97240 0.02200
C 	C 	0.42742 0.47237 0.02372 0.00100
C 	C 	0.32486 0.43540 0.97332 -0.17000
C 	C 	0.39519 0.41487 0.04485 0.02500
C 	C 	0.37411 0.44142 0.07041 -0.02000
C 	C 	0.38370 0.52426 0.07491 -0.11800
C 	C 	0.41543 0.58162 0.05340 0.09200
C 	C 	0.43821 0.55505 0.02828 -0.09300
C 	C 	0.38431 0.32561 0.04040 -0.17500
H 	H 	0.35012 0.39756 0.08681 0.04100
C 	C 	0.42402 0.67061 0.05672 -0.20300
H 	H 	0.46381 0.59886 0.01201 0.04900
H 	H 	0.32749 0.49905 0.97772 0.05900
H 	H 	0.29154 0.39460 0.99000 0.06000
H 	H 	0.29246 0.41393 0.95307 0.06100
H 	H 	0.35312 0.28753 0.05803 0.06400
H 	H 	0.34955 0.30132 0.02080 0.06500
H 	H 	0.46937 0.70133 0.07302 0.09100
H 	H 	0.36750 0.67539 0.06228 0.06300
H 	H 	0.44210 0.70451 0.03690 0.06400
C 	C 	0.46620 0.10303 0.84461 -0.12200
C 	C 	0.45351 0.02638 0.83165 -0.02700
C 	C 	0.38255 0.98376 0.81764 0.13500
C 	C 	0.32316 0.01717 0.81688 -0.07800
C 	C 	0.33569 0.09350 0.82995 -0.07000
C 	C 	0.40675 0.13651 0.84371 0.17900
H 	H 	0.49831 0.99938 0.83269 0.04600
O 	O 	0.37049 0.90837 0.80542 -0.29500
H 	H 	0.29107 0.12073 0.82872 0.07300
O 	O 	0.41943 0.21310 0.85506 -0.30600
H 	H 	0.39899 0.20341 0.87435 0.16300
H 	H 	0.39015 0.92001 0.78608 0.13600
Ni	Ni	0.61977 0.28188 0.90159 1.09900
O 	O 	0.62633 0.34169 0.86400 -0.69700
Ni	Ni	0.73090 0.34200 0.85115 1.09600
O 	O 	0.53160 0.31297 0.91753 -0.37200
O 	O 	0.54334 0.43262 0.89659 -0.40300
O 	O 	0.53582 0.17713 0.88552 -0.37100
Ni	Ni	0.63744 0.45764 0.86986 1.06700
O 	O 	0.62679 0.10891 0.91257 -0.40600
O 	O 	0.71283 0.46606 0.90275 -0.43300
O 	O 	0.74172 0.41429 0.81678 -0.37900
O 	O 	0.71737 0.27376 0.88667 -0.70700
O 	O 	0.62064 0.22010 0.93744 -0.38700
O 	O 	0.82932 0.31872 0.84052 -0.36700
O 	O 	0.76819 0.18052 0.84454 -0.40600
Ni	Ni	0.69688 0.15711 0.87920 1.06900
H 	H 	0.58395 0.31308 0.85026 0.16700
H 	H 	0.76029 0.29615 0.90072 0.15200
C 	C 	0.78342 0.46521 0.89881 0.28300
O 	O 	0.60482 0.14015 0.85214 -0.41500
C 	C 	0.53706 0.38959 0.91949 0.29800
C 	C 	0.73953 0.48866 0.81956 0.29900
C 	C 	0.53919 0.14543 0.86067 0.31100
C 	C 	0.83276 0.24509 0.84349 0.29700
C 	C 	0.62891 0.14799 0.93688 0.29300
O 	O 	0.80212 0.44273 0.87421 -0.37400
O 	O 	0.72826 0.51586 0.84445 -0.41100
Ni	Ni	0.58731 0.35140 0.63957 1.09700
O 	O 	0.67845 0.37192 0.61305 -0.70100
Ni	Ni	0.74505 0.32221 0.63418 1.10100
O 	O 	0.53317 0.40482 0.61179 -0.37100
O 	O 	0.64118 0.51898 0.61338 -0.40900
O 	O 	0.53413 0.23997 0.61888 -0.37000
Ni	Ni	0.73840 0.48755 0.60717 1.07800
O 	O 	0.49209 0.19316 0.66916 -0.41200
O 	O 	0.76776 0.50968 0.64864 -0.40800
O 	O 	0.82240 0.33475 0.60279 -0.37000
O 	O 	0.66242 0.31788 0.66386 -0.69300
O 	O 	0.49529 0.32451 0.66615 -0.38700
O 	O 	0.79424 0.24372 0.65199 -0.35700
O 	O 	0.70936 0.19326 0.68732 -0.40800
Ni	Ni	0.60571 0.20470 0.67476 1.07000
H 	H 	0.66173 0.34350 0.59466 0.15400
H 	H 	0.68306 0.35567 0.68018 0.16700
C 	C 	0.82636 0.49254 0.65904 0.31600
O 	O 	0.61063 0.16866 0.63427 -0.43400
C 	C 	0.57532 0.47489 0.60068 0.29300
C 	C 	0.84222 0.40114 0.58737 0.28000
C 	C 	0.56927 0.18674 0.61419 0.27800
C 	C 	0.75906 0.18436 0.66935 0.31400
C 	C 	0.46466 0.25047 0.67641 0.31000
O 	O 	0.82906 0.41860 0.65551 -0.36500
O 	O 	0.83986 0.47068 0.59792 -0.40300
O 	O 	0.85293 0.91907 0.73429 -0.38700
C 	C 	0.88250 0.94767 0.70969 0.28300
O 	O 	0.88646 0.13871 0.26030 -0.69700
Ni	Ni	0.86626 0.02617 0.27593 1.09900
O 	O 	0.84047 0.25769 0.22873 -0.40000
Ni	Ni	0.78692 0.14987 0.25114 1.07100
O 	O 	0.78159 0.06645 0.22008 -0.43000
O 	O 	0.78921 0.02799 0.30632 -0.39100
O 	O 	0.87773 0.92181 0.29235 -0.36100
C 	C 	0.75277 0.98735 0.22564 0.29400
C 	C 	0.72362 0.03893 0.29966 0.30500
O 	O 	0.77460 0.95907 0.24902 -0.36400
O 	O 	0.71105 0.05765 0.27370 -0.40800
C 	C 	0.67867 0.93715 0.21153 -0.09700
C 	C 	0.62327 0.97326 0.20530 -0.06300
C 	C 	0.54851 0.92528 0.19569 0.17400
C 	C 	0.52858 0.84005 0.19147 -0.10900
C 	C 	0.58483 0.80408 0.19655 -0.05400
C 	C 	0.65949 0.85215 0.20688 0.16800
H 	H 	0.63733 0.03855 0.20886 0.05100
O 	O 	0.49567 0.96230 0.18952 -0.30300
H 	H 	0.57042 0.73879 0.19290 0.06500
O 	O 	0.71420 0.81651 0.21147 -0.28500
H 	H 	0.70597 0.79597 0.23093 0.15900
H 	H 	0.47007 0.96474 0.20751 0.13000
C 	C 	0.51399 0.92018 0.34475 -0.09900
C 	C 	0.52136 0.98938 0.32858 -0.06900
C 	C 	0.59161 0.03214 0.31547 0.17000
C 	C 	0.65549 0.00544 0.31812 -0.10100
C 	C 	0.64997 0.94000 0.33595 -0.06000
C 	C 	0.58025 0.89845 0.34963 0.16400
H 	H 	0.47227 0.00941 0.32571 0.06700
O 	O 	0.59827 0.10120 0.30063 -0.30400
H 	H 	0.69906 0.91991 0.33873 0.07000
O 	O 	0.57687 0.83613 0.36746 -0.27600
H 	H 	0.59182 0.86286 0.38628 0.14500
H 	H 	0.57629 0.08097 0.28160 0.14400
C 	C 	0.51308 0.01288 0.55994 -0.08100
C 	C 	0.51246 0.05586 0.53534 -0.00500
C 	C 	0.53530 0.14216 0.53640 0.02900
C 	C 	0.55650 0.18403 0.56229 -0.02100
C 	C 	0.55472 0.14102 0.58715 -0.10700
C 	C 	0.53223 0.05435 0.58601 0.09600
C 	C 	0.48158 0.00939 0.50898 0.02200
C 	C 	0.53354 0.18943 0.51020 -0.17400
H 	H 	0.57216 0.25011 0.56322 0.02600
C 	C 	0.52658 0.00553 0.61238 -0.19200
H 	H 	0.49607 0.94660 0.55887 0.04400
C 	C 	0.53180 0.99252 0.48978 0.00300
C 	C 	0.50151 0.95392 0.46394 -0.00800
C 	C 	0.61747 0.01540 0.49679 -0.14700
H 	H 	0.54052 0.94446 0.44855 0.03900
H 	H 	0.58588 0.01585 0.62111 0.07500
H 	H 	0.49737 0.93860 0.60813 0.06100
H 	H 	0.49177 0.02351 0.62829 0.07500
H 	H 	0.56890 0.17513 0.49366 0.06200
H 	H 	0.55772 0.25683 0.51426 0.05700
H 	H 	0.64788 0.99370 0.48022 0.05100
H 	H 	0.62521 0.98696 0.51683 0.05400
H 	H 	0.64567 0.08310 0.49894 0.05700
C 	C 	0.88245 0.40292 0.56090 -0.09900
C 	C 	0.83979 0.38416 0.53515 0.07700
C 	C 	0.75212 0.34439 0.53470 -0.19400
H 	H 	0.72595 0.38932 0.54200 0.04300
H 	H 	0.73391 0.29057 0.54865 0.06100
H 	H 	0.72863 0.32229 0.51322 0.06100
C 	C 	0.49180 0.50662 0.53004 -0.10300
C 	C 	0.55913 0.53083 0.51384 0.01100
C 	C 	0.62984 0.52955 0.52550 0.00800
C 	C 	0.63259 0.50619 0.55345 0.00300
C 	C 	0.56653 0.48687 0.57028 -0.13900
C 	C 	0.49511 0.48569 0.55835 0.11300
C 	C 	0.70355 0.55799 0.50883 -0.16500
H 	H 	0.68702 0.50554 0.56244 -0.04700
C 	C 	0.42278 0.46331 0.57567 -0.21300
C 	C 	0.56595 0.64616 0.48256 -0.09200
C 	C 	0.55139 0.76272 0.45531 -0.20500
H 	H 	0.58592 0.68782 0.50053 0.05000
H 	H 	0.37359 0.47202 0.56389 0.07000
H 	H 	0.43431 0.50262 0.59499 0.08100
H 	H 	0.72212 0.62513 0.50559 0.06100
H 	H 	0.69392 0.52580 0.48808 0.06000
H 	H 	0.75185 0.54533 0.51985 0.05200
H 	H 	0.59096 0.80142 0.47206 0.06700
H 	H 	0.57587 0.78794 0.43483 0.08600
C 	C 	0.85145 0.00194 0.69406 -0.08900
C 	C 	0.90233 0.07926 0.68601 -0.07400
C 	C 	0.87289 0.13821 0.67629 0.17700
C 	C 	0.79163 0.11952 0.67436 -0.11600
C 	C 	0.74100 0.03995 0.68032 -0.04500
C 	C 	0.77058 0.98125 0.69015 0.14200
H 	H 	0.67848 0.02442 0.67819 0.04200
O 	O 	0.72022 0.90481 0.69697 -0.28000
H 	H 	0.71297 0.87094 0.67952 0.14600
C 	C 	0.89699 0.56029 0.66884 -0.11300
O 	O 	0.90257 0.62964 0.62492 -0.31900
C 	C 	0.83547 0.56298 0.93887 -0.01700
C 	C 	0.84491 0.50382 0.92044 -0.10900
C 	C 	0.90652 0.47431 0.92564 0.08900
H 	H 	0.79334 0.59153 0.93372 0.03500
C 	C 	0.93398 0.42997 0.90309 -0.20000
C 	C 	0.85603 0.43233 0.01746 -0.17400
H 	H 	0.89018 0.36803 0.89888 0.06200
H 	H 	0.98936 0.42206 0.90948 0.06300
H 	H 	0.94540 0.46582 0.88350 0.08900
H 	H 	0.83736 0.39654 0.03687 0.06100
H 	H 	0.86239 0.38997 0.00085 0.05900
H 	H 	0.80942 0.45552 0.01092 0.06000
C 	C 	0.56587 0.02347 0.01458 0.02400
C 	C 	0.63270 0.91822 0.04576 -0.17500
C 	C 	0.55617 0.02304 0.96347 0.00800
C 	C 	0.61540 0.10074 0.96309 -0.11400
C 	C 	0.65447 0.13691 0.98853 0.10000
C 	C 	0.62802 0.09886 0.01413 -0.10000
C 	C 	0.72215 0.21753 0.98865 -0.20000
H 	H 	0.65516 0.12849 0.03377 0.05500
H 	H 	0.68278 0.97662 0.04360 0.06400
H 	H 	0.65116 0.87889 0.06032 0.06400
H 	H 	0.75901 0.22539 0.00802 0.06300
H 	H 	0.70008 0.26909 0.98777 0.07200
H 	H 	0.76005 0.22049 0.97046 0.05700
C 	C 	0.52918 0.44633 0.99583 -0.09100
C 	C 	0.45347 0.44744 0.99709 0.00500
C 	C 	0.43626 0.41968 0.94669 -0.00900
C 	C 	0.51176 0.41764 0.94550 -0.11000
C 	C 	0.55881 0.43147 0.97023 0.09500
H 	H 	0.40012 0.40837 0.92770 0.04000
C 	C 	0.64204 0.43512 0.96914 -0.20400
H 	H 	0.56558 0.45856 0.01476 0.05200
H 	H 	0.66976 0.44248 0.99044 0.06500
H 	H 	0.67626 0.48841 0.95659 0.07200
H 	H 	0.64478 0.37793 0.95952 0.06200
H 	H 	0.44203 0.31894 0.03876 0.06800
C 	C 	0.90642 0.23220 0.83896 -0.11500
C 	C 	0.93585 0.23796 0.81179 -0.05100
H 	H 	0.91539 0.26938 0.79569 0.06500
C 	C 	0.85511 0.70004 0.77216 -0.10600
C 	C 	0.85737 0.57612 0.79447 0.17100
C 	C 	0.77621 0.55002 0.79818 -0.10100
C 	C 	0.73427 0.59601 0.78669 -0.06600
C 	C 	0.77337 0.67068 0.77365 0.17100
H 	H 	0.67180 0.57625 0.78929 0.04500
O 	O 	0.73205 0.71734 0.76405 -0.29400
H 	H 	0.71876 0.70008 0.74409 0.15600
H 	H 	0.91521 0.55092 0.82401 0.15200
H 	H 	0.03071 0.81000 0.39037 0.14400
C 	C 	0.87911 0.40646 0.50981 -0.08100
H 	H 	0.84635 0.39580 0.49006 0.04600
H 	H 	0.06174 0.60546 0.73144 0.14900
H 	H 	0.00161 0.11642 0.86845 0.06600
H 	H 	0.90394 0.50615 0.70892 0.06300
O 	O 	0.95748 0.93395 0.17039 -0.31100
O 	O 	0.02106 0.39577 0.24428 -0.28900
C 	C 	0.92897 0.55890 0.69574 -0.04600
H 	H 	0.93264 0.94962 0.15385 0.15400
C 	C 	0.94608 0.49140 0.95175 -0.09600
C 	C 	0.93167 0.62797 0.65155 0.18500
O 	O 	0.04460 0.84069 0.69708 -0.37200
H 	H 	0.91801 0.69107 0.99103 0.06400
H 	H 	0.93780 0.61427 0.61230 0.15200
H 	H 	0.99003 0.46505 0.95668 0.04700
C 	C 	0.89644 0.65097 0.78151 -0.05500
O 	O 	0.89900 0.53024 0.80452 -0.27600
O 	O 	0.01894 0.62731 0.73314 -0.28600
O 	O 	0.00961 0.98787 0.29473 -0.40600
H 	H 	0.99591 0.42800 0.25518 0.14300
C 	C 	0.95960 0.85245 0.31208 -0.08600
C 	C 	0.97948 0.86368 0.34087 -0.07700
H 	H 	0.02245 0.29659 0.45654 0.05900
C 	C 	0.96828 0.51844 0.04874 -0.02900
H 	H 	0.94070 0.48039 0.06619 0.04900
O 	O 	0.90718 0.84482 0.78294 -0.41400
C 	C 	0.89767 0.78557 0.76437 0.31000
C 	C 	0.00358 0.45636 0.53551 0.04600
C 	C 	0.98475 0.19513 0.80453 0.14200
C 	C 	0.93649 0.19506 0.86000 0.16700
O 	O 	0.00641 0.19367 0.77715 -0.30800
O 	O 	0.91247 0.19406 0.88716 -0.32700
H 	H 	0.05745 0.23909 0.77601 0.15500
H 	H 	0.95936 0.67293 0.78020 0.05500
C 	C 	0.94161 0.35458 0.20206 -0.11900
Ni	Ni	0.01470 0.90515 0.72789 1.10700
O 	O 	0.92174 0.80212 0.73850 -0.37100
O 	O 	0.94247 0.93154 0.69995 -0.37100
O 	O 	0.95857 0.00276 0.81147 -0.40900
Ni	Ni	0.91234 0.95903 0.77167 1.07100
Ni	Ni	0.94201 0.12572 0.22412 1.10600
O 	O 	0.91570 0.21043 0.20091 -0.37500
O 	O 	0.93877 0.02539 0.24418 -0.70700
H 	H 	0.91788 0.18298 0.27337 0.16000
H 	H 	0.91652 0.97633 0.23170 0.17000
C 	C 	0.90159 0.27159 0.21272 0.32200
C 	C 	0.94842 0.92079 0.29742 0.27500
H 	H 	0.87360 0.33222 0.16334 0.06000
H 	H 	0.95720 0.90176 0.35374 0.06200
C 	C 	0.96049 0.44381 0.50988 -0.01900
C 	C 	0.00260 0.33044 0.47285 -0.16000
C 	C 	0.96401 0.43652 0.56089 -0.02800
H 	H 	0.99655 0.45021 0.58071 0.04400
H 	H 	0.93827 0.30120 0.47400 0.05900
H 	H 	0.02966 0.32412 0.49332 0.06200
H 	H 	0.96478 0.09526 0.68871 0.05500
O 	O 	0.92346 0.21565 0.67071 -0.27800
H 	H 	0.93629 0.21362 0.65062 0.15400
C 	C 	0.99110 0.62739 0.70621 0.15200
C 	C 	0.02082 0.69795 0.68978 -0.08600
C 	C 	0.99375 0.69579 0.66196 -0.07900
H 	H 	0.01790 0.74894 0.64888 0.07600
C 	C 	0.92920 0.54227 0.97160 0.00500
C 	C 	0.87666 0.58189 0.96459 0.02100
C 	C 	0.96743 0.55439 0.99960 -0.00900
C 	C 	0.86211 0.64173 0.98492 -0.17100
C 	C 	0.93207 0.50318 0.02201 0.03000
H 	H 	0.83422 0.60924 0.00401 0.06200
H 	H 	0.82313 0.67131 0.97553 0.05800
C 	C 	0.00331 0.14568 0.82451 -0.09500
C 	C 	0.98477 0.15167 0.85269 -0.07700
H 	H 	0.95090 0.24361 0.89642 0.13900
