data_crystal

_cell_length_a 18.52098
_cell_length_b 18.72262
_cell_length_c 30.52425
_cell_angle_alpha 95.41493
_cell_angle_beta  95.41452
_cell_angle_gamma 126.41516

_symmetry_space_group_name_	'P 1'
_symmetry_space_group_name_H-M	'P 1'

loop_
_symmetry_equiv_pos_as_xyz
  x,y,z

loop_
_atom_site_label
_atom_site_type_symbol
_atom_site_fract_x
_atom_site_fract_y
_atom_site_fract_z
_atom_site_charge
C 	C 	0.86086 0.94791 0.95503 0.14700
N 	N 	0.95257 0.00091 0.95737 -0.14400
C 	C 	0.99648 0.96349 0.95483 0.14500
N 	N 	0.94828 0.87251 0.94915 -0.12900
C 	C 	0.85689 0.81901 0.94799 0.14600
N 	N 	0.81272 0.85665 0.95087 -0.12400
C 	C 	0.99759 0.08756 0.51227 0.12900
N 	N 	0.94437 0.99871 0.51502 -0.11700
C 	C 	0.98134 0.95443 0.51744 0.13900
N 	N 	0.07153 0.99903 0.51749 -0.10800
C 	C 	0.12511 0.08778 0.51485 0.14500
N 	N 	0.08803 0.13211 0.51179 -0.11500
Cu	Cu	0.71398 0.29348 0.94502 0.92700
Cu	Cu	0.71603 0.25327 0.04702 0.87800
Cu	Cu	0.56833 0.25165 0.99963 0.89400
Cu	Cu	0.53171 0.25919 0.90345 0.90600
C 	C 	0.65072 0.24406 0.84961 0.29100
O 	O 	0.75231 0.41732 0.93492 -0.34200
C 	C 	0.62886 0.30436 0.09872 0.28300
O 	O 	0.57173 0.20988 0.94035 -0.64000
O 	O 	0.70313 0.32039 0.00695 -0.63200
O 	O 	0.78303 0.24408 0.95778 -0.35300
O 	O 	0.69002 0.15732 0.00405 -0.41400
O 	O 	0.60256 0.27404 0.85508 -0.35900
O 	O 	0.43684 0.17683 0.99028 -0.38300
C 	C 	0.38218 0.17181 0.95690 0.30800
C 	C 	0.70395 0.44559 0.94446 0.28800
O 	O 	0.61916 0.38736 0.94969 -0.38400
O 	O 	0.40682 0.19180 0.91784 -0.36400
O 	O 	0.70316 0.24860 0.88391 -0.33800
C 	C 	0.74652 0.17258 0.97688 0.29200
O 	O 	0.56572 0.27865 0.06341 -0.36100
O 	O 	0.70669 0.31942 0.09439 -0.40700
H 	H 	0.53775 0.14366 0.93228 0.17900
H 	H 	0.73763 0.38537 0.01969 0.18400
Cu	Cu	0.65983 0.24586 0.50858 0.93200
Cu	Cu	0.72297 0.25917 0.41113 0.87700
Cu	Cu	0.70884 0.39646 0.45691 0.90400
Cu	Cu	0.66662 0.41116 0.54844 0.90400
C 	C 	0.69585 0.30460 0.60377 0.28600
O 	O 	0.52778 0.19168 0.51130 -0.35300
C 	C 	0.67298 0.34478 0.35769 0.28800
O 	O 	0.73524 0.38725 0.51746 -0.63700
O 	O 	0.64413 0.26321 0.44659 -0.64000
O 	O 	0.71698 0.18445 0.49917 -0.35400
O 	O 	0.81402 0.28395 0.45809 -0.42800
O 	O 	0.65480 0.34204 0.59676 -0.37000
O 	O 	0.77846 0.52615 0.47082 -0.37100
C 	C 	0.77586 0.57204 0.50545 0.31300
C 	C 	0.49328 0.23333 0.50020 0.30200
O 	O 	0.54805 0.31827 0.49633 -0.37500
O 	O 	0.71754 0.53140 0.53263 -0.36800
O 	O 	0.69346 0.25169 0.57085 -0.33700
C 	C 	0.79432 0.22548 0.48435 0.30600
O 	O 	0.70383 0.40852 0.39322 -0.37000
O 	O 	0.66160 0.26927 0.36130 -0.40500
H 	H 	0.80115 0.42491 0.53062 0.18200
H 	H 	0.57997 0.22761 0.43077 0.19100
C 	C 	0.66717 0.23172 0.80454 -0.04800
C 	C 	0.60402 0.14923 0.77486 0.01100
C 	C 	0.60583 0.14350 0.72901 -0.04400
C 	C 	0.66974 0.22087 0.71241 0.02300
C 	C 	0.73720 0.30260 0.74264 0.02700
C 	C 	0.73664 0.30695 0.78873 -0.01100
C 	C 	0.79949 0.38062 0.72607 -0.04500
C 	C 	0.79008 0.37949 0.68000 0.01200
C 	C 	0.71967 0.30000 0.65004 -0.05100
C 	C 	0.66259 0.21964 0.66609 -0.00800
H 	H 	0.55100 0.09058 0.78704 0.04600
H 	H 	0.55488 0.08002 0.70624 0.05900
H 	H 	0.78606 0.37041 0.81189 0.06800
H 	H 	0.85251 0.44324 0.74893 0.06300
H 	H 	0.83515 0.44141 0.66769 0.04400
H 	H 	0.60871 0.15799 0.64280 0.05900
C 	C 	0.66506 0.36434 0.31273 -0.06500
C 	C 	0.73890 0.44393 0.30156 0.00900
C 	C 	0.74185 0.45332 0.25674 -0.05100
C 	C 	0.67064 0.38335 0.22270 0.01900
C 	C 	0.59236 0.30683 0.23410 0.02000
C 	C 	0.58992 0.29777 0.27918 -0.01400
C 	C 	0.52029 0.23778 0.20006 -0.05000
C 	C 	0.52916 0.24097 0.15518 0.00800
C 	C 	0.61034 0.31280 0.14394 -0.06500
C 	C 	0.67916 0.38603 0.17756 -0.01500
H 	H 	0.79644 0.49633 0.32739 0.04500
H 	H 	0.80112 0.51341 0.24845 0.05500
H 	H 	0.53187 0.23721 0.28795 0.05400
H 	H 	0.45887 0.17995 0.20837 0.05700
H 	H 	0.47501 0.18501 0.12930 0.04600
H 	H 	0.74093 0.44269 0.16875 0.05100
C 	C 	0.93259 0.82234 0.55252 -0.05400
C 	C 	0.92269 0.85675 0.51552 -0.01000
C 	C 	0.86364 0.79737 0.47534 0.07600
C 	C 	0.81584 0.70426 0.47240 -0.00900
C 	C 	0.82715 0.66987 0.50908 -0.08300
C 	C 	0.88550 0.72922 0.54948 0.11200
N 	N 	0.89901 0.69532 0.58703 -0.02400
H 	H 	0.97892 0.86814 0.58328 0.08300
H 	H 	0.77037 0.65867 0.44142 0.07000
N 	N 	0.85424 0.83168 0.43702 -0.01800
O 	O 	0.93128 0.64987 0.58329 -0.11100
O 	O 	0.88581 0.71590 0.62584 -0.09500
O 	O 	0.92254 0.87735 0.41646 -0.08000
O 	O 	0.77541 0.81127 0.42065 -0.08200
C 	C 	0.89347 0.18796 0.45853 -0.01100
C 	C 	0.85454 0.19927 0.49327 -0.09200
C 	C 	0.87119 0.18266 0.53577 0.11600
C 	C 	0.92025 0.14821 0.54200 -0.05800
C 	C 	0.95581 0.13338 0.50671 -0.00800
C 	C 	0.94384 0.15504 0.46503 0.07000
N 	N 	0.98049 0.14120 0.42880 -0.02700
H 	H 	0.88207 0.20185 0.42596 0.04700
H 	H 	0.93099 0.13330 0.57438 0.07700
N 	N 	0.84211 0.20457 0.57311 -0.02100
O 	O 	0.94852 0.05971 0.41062 -0.08400
O 	O 	0.04075 0.20946 0.41175 -0.07800
O 	O 	0.78706 0.14197 0.59452 -0.08900
O 	O 	0.87696 0.28832 0.58810 -0.09800
C 	C 	0.36354 0.15673 0.54041 -0.01300
C 	C 	0.39742 0.19234 0.50248 -0.08600
C 	C 	0.34350 0.19950 0.47006 0.11300
C 	C 	0.25666 0.17130 0.47610 -0.05400
C 	C 	0.22238 0.13446 0.51374 -0.00900
C 	C 	0.27714 0.12921 0.54658 0.07400
N 	N 	0.24546 0.09684 0.58657 -0.01800
H 	H 	0.40583 0.15367 0.56606 0.06800
H 	H 	0.21424 0.17425 0.45048 0.08900
N 	N 	0.37571 0.23307 0.43038 -0.02200
O 	O 	0.24793 0.03367 0.59906 -0.09100
O 	O 	0.21848 0.13365 0.61165 -0.08700
O 	O 	0.40019 0.19504 0.40426 -0.10700
O 	O 	0.37454 0.29751 0.41877 -0.08900
C 	C 	0.73625 0.58912 0.98077 -0.03400
C 	C 	0.74134 0.54078 0.94473 -0.07600
C 	C 	0.77679 0.58185 0.90790 0.10900
C 	C 	0.80946 0.67138 0.90820 -0.05200
C 	C 	0.80695 0.72070 0.94483 -0.01300
C 	C 	0.76996 0.67910 0.98130 0.07300
N 	N 	0.77050 0.72923 0.01986 -0.01200
H 	H 	0.70815 0.55762 0.00897 0.07700
H 	H 	0.83810 0.70306 0.88013 0.07600
N 	N 	0.77781 0.53226 0.86965 -0.02100
O 	O 	0.69376 0.70521 0.03075 -0.07300
O 	O 	0.84734 0.79320 0.04640 -0.06600
O 	O 	0.70169 0.46785 0.84278 -0.09800
O 	O 	0.85524 0.55703 0.85943 -0.09800
C 	C 	0.78606 0.01047 0.92247 -0.08300
C 	C 	0.81553 0.99063 0.96031 -0.00200
C 	C 	0.82049 0.02944 0.00340 0.07200
C 	C 	0.80028 0.09067 0.00829 0.00900
C 	C 	0.77326 0.11255 0.97055 -0.10900
C 	C 	0.76395 0.07042 0.92736 0.12400
N 	N 	0.72969 0.08624 0.88847 -0.02300
H 	H 	0.78223 0.98093 0.88922 0.08800
H 	H 	0.80529 0.12102 0.04160 0.04300
N 	N 	0.84822 0.00839 0.04237 -0.02300
O 	O 	0.78063 0.12325 0.85885 -0.09000
O 	O 	0.64511 0.05668 0.88082 -0.10600
O 	O 	0.91776 0.07281 0.07273 -0.09100
O 	O 	0.80040 0.92554 0.04890 -0.05900
C 	C 	0.13886 0.09393 0.93565 -0.05400
C 	C 	0.09645 0.02168 0.95876 -0.00800
C 	C 	0.14983 0.00464 0.98491 0.06200
C 	C 	0.24333 0.05484 0.98455 -0.02900
C 	C 	0.28532 0.12501 0.96005 -0.07800
C 	C 	0.23323 0.14706 0.93705 0.11200
N 	N 	0.27633 0.22494 0.91632 -0.02200
H 	H 	0.09856 0.10911 0.91665 0.08200
H 	H 	0.28327 0.03903 0.00332 0.08100
N 	N 	0.10983 0.93831 0.01294 -0.00700
O 	O 	0.24697 0.21703 0.87440 -0.08900
O 	O 	0.34009 0.30463 0.94020 -0.09600
O 	O 	0.11694 0.87304 0.00867 -0.07600
O 	O 	0.07168 0.94659 0.04467 -0.06000
