data_crystal

_cell_length_a 28.37615
_cell_length_b 26.59941
_cell_length_c 44.49831
_cell_angle_alpha 103.79630
_cell_angle_beta  115.84373
_cell_angle_gamma 112.10552

_symmetry_space_group_name_	'P 1'
_symmetry_space_group_name_H-M	'P 1'

loop_
_symmetry_equiv_pos_as_xyz
  x,y,z

loop_
_atom_site_label
_atom_site_type_symbol
_atom_site_fract_x
_atom_site_fract_y
_atom_site_fract_z
_atom_site_charge
C 	C 	0.64961 0.29071 0.93611 0.04500
C 	C 	0.67856 0.25870 0.93410 -0.08500
C 	C 	0.72885 0.28283 0.93139 0.04500
C 	C 	0.74901 0.33810 0.92956 -0.08500
C 	C 	0.72030 0.37033 0.93168 0.04400
C 	C 	0.67027 0.34641 0.93469 -0.08600
H 	H 	0.66371 0.21648 0.93626 0.05000
H 	H 	0.78883 0.35747 0.92827 0.04900
H 	H 	0.64887 0.37200 0.93716 0.05000
C 	C 	0.46934 0.22021 0.37465 0.04400
C 	C 	0.49034 0.27658 0.37401 -0.08600
C 	C 	0.54053 0.30117 0.37120 0.04300
C 	C 	0.56907 0.26896 0.36849 -0.08600
C 	C 	0.54856 0.21300 0.36951 0.04400
C 	C 	0.49811 0.18820 0.37203 -0.08600
H 	H 	0.46910 0.30214 0.37695 0.05000
H 	H 	0.60899 0.28882 0.36734 0.04900
H 	H 	0.48302 0.14547 0.37360 0.05000
C 	C 	0.56958 0.80074 0.03959 0.04200
C 	C 	0.53827 0.83105 0.03894 -0.08600
C 	C 	0.48339 0.80361 0.03702 0.04300
C 	C 	0.46040 0.74638 0.03640 -0.08600
C 	C 	0.49129 0.71577 0.03682 0.04300
C 	C 	0.54610 0.74306 0.03858 -0.08600
H 	H 	0.55553 0.87492 0.03881 0.04800
H 	H 	0.41744 0.72478 0.03440 0.04900
H 	H 	0.56954 0.71897 0.03832 0.04800
C 	C 	0.38406 0.72454 0.47409 0.04300
C 	C 	0.35249 0.75441 0.47398 -0.08600
C 	C 	0.29814 0.72643 0.47254 0.04400
C 	C 	0.27589 0.66906 0.47177 -0.08600
C 	C 	0.30705 0.63892 0.47164 0.04400
C 	C 	0.36135 0.66676 0.47297 -0.08600
H 	H 	0.36923 0.79844 0.47400 0.04900
H 	H 	0.23332 0.64705 0.47014 0.05000
H 	H 	0.38508 0.64308 0.47237 0.05000
Zn	Zn	0.24853 0.16473 0.03001 1.18400
Zn	Zn	0.14033 0.12030 0.95039 1.19400
O 	O 	0.12596 0.01981 0.88651 -0.47500
O 	O 	0.10513 0.09519 0.89451 -0.44200
O 	O 	0.12616 0.93693 0.93460 -0.50100
C 	C 	0.30232 0.13285 0.99451 0.32000
O 	O 	0.08064 0.03539 0.93591 -0.87200
C 	C 	0.25069 0.25364 0.00119 0.32900
O 	O 	0.31578 0.16409 0.02788 -0.46900
O 	O 	0.24351 0.09353 0.96516 -0.35900
O 	O 	0.16398 0.12720 0.00253 -0.78200
O 	O 	0.18279 0.01748 0.99411 -0.45100
O 	O 	0.20662 0.20571 0.96648 -0.45500
O 	O 	0.26989 0.24639 0.03168 -0.46500
Zn	Zn	0.96933 0.93757 0.95305 1.16800
Zn	Zn	0.07741 0.96108 0.01968 1.18700
Zn	Zn	0.10596 0.04210 0.98525 1.21800
C 	C 	0.96060 0.83560 0.97278 0.31700
C 	C 	0.94537 0.98054 0.00525 0.31200
O 	O 	0.03043 0.07054 0.97749 -0.46900
Zn	Zn	0.09578 0.08048 0.05349 1.20100
O 	O 	0.02117 0.87189 0.00060 -0.44800
O 	O 	0.93177 0.85353 0.94976 -0.47100
O 	O 	0.92626 0.96491 0.96990 -0.48400
O 	O 	0.00112 0.99341 0.03012 -0.46000
C 	C 	0.11802 0.02582 0.10193 0.32300
O 	O 	0.04715 0.95740 0.96763 -0.79700
C 	C 	0.03184 0.11161 0.00194 0.35500
O 	O 	0.10763 0.97932 0.07506 -0.43900
O 	O 	0.13078 0.07839 0.10129 -0.47200
O 	O 	0.06196 0.12562 0.03789 -0.49700
O 	O 	0.12973 0.04749 0.03413 -0.89100
Zn	Zn	0.09656 0.98111 0.91281 1.18300
C 	C 	0.10920 0.05449 0.87396 0.30500
C 	C 	0.17168 0.96636 0.97099 0.32600
H 	H 	0.17500 0.06600 0.05276 0.16100
H 	H 	0.03644 0.02248 0.91965 0.15000
Zn	Zn	0.07042 0.09156 0.46918 1.18800
Zn	Zn	0.96487 0.04468 0.38797 1.19100
O 	O 	0.95342 0.93687 0.32862 -0.48300
O 	O 	0.93800 0.01603 0.33324 -0.44700
O 	O 	0.93766 0.85644 0.37574 -0.49900
C 	C 	0.12664 0.05770 0.43622 0.31300
O 	O 	0.90199 0.96134 0.37378 -0.87600
C 	C 	0.07436 0.17783 0.43854 0.32800
O 	O 	0.13901 0.09095 0.46882 -0.46100
O 	O 	0.06831 0.01494 0.40726 -0.33600
O 	O 	0.98577 0.05438 0.44012 -0.78700
O 	O 	0.00069 0.94257 0.43350 -0.43000
O 	O 	0.03402 0.12856 0.40426 -0.44900
O 	O 	0.09225 0.17237 0.46964 -0.46000
Zn	Zn	0.78924 0.86860 0.39312 1.17300
Zn	Zn	0.89726 0.89406 0.46036 1.18600
Zn	Zn	0.92609 0.97057 0.42363 1.21500
C 	C 	0.78019 0.76841 0.41457 0.33600
C 	C 	0.76550 0.91179 0.44531 0.33300
O 	O 	0.85211 0.00187 0.41479 -0.46700
Zn	Zn	0.91497 0.01152 0.49149 1.20000
O 	O 	0.84009 0.80605 0.44355 -0.46200
O 	O 	0.75165 0.78524 0.39059 -0.47100
O 	O 	0.74734 0.89740 0.41021 -0.48900
O 	O 	0.82155 0.92563 0.47063 -0.47700
C 	C 	0.95506 0.96804 0.54566 0.31900
O 	O 	0.86635 0.88702 0.40737 -0.80400
C 	C 	0.85127 0.04145 0.43867 0.33300
O 	O 	0.93562 0.91701 0.51717 -0.43700
O 	O 	0.95383 0.01469 0.54092 -0.46800
O 	O 	0.88008 0.05515 0.47459 -0.49900
O 	O 	0.94965 0.97873 0.47283 -0.90300
Zn	Zn	0.91358 0.90122 0.35179 1.18200
C 	C 	0.94904 0.97751 0.31751 0.31100
C 	C 	0.98592 0.88826 0.41155 0.28600
H 	H 	0.99487 0.99736 0.49169 0.15500
H 	H 	0.85852 0.95036 0.35752 0.14100
C 	C 	0.09860 0.05014 0.83766 -0.09900
C 	C 	0.13057 0.03281 0.82519 0.01500
C 	C 	0.11575 0.02212 0.78899 -0.06600
C 	C 	0.06900 0.02879 0.76496 0.02000
C 	C 	0.03852 0.04815 0.77787 -0.06500
C 	C 	0.05331 0.05887 0.81409 0.01300
C 	C 	0.05068 0.01377 0.72591 0.02600
C 	C 	0.98984 0.96469 0.69443 -0.06700
C 	C 	0.97198 0.95143 0.65741 -0.05500
C 	C 	0.01482 0.98702 0.65162 0.02300
C 	C 	0.07602 0.03518 0.68300 -0.03400
C 	C 	0.09394 0.04851 0.72004 -0.04500
C 	C 	0.99428 0.97815 0.61386 0.01400
C 	C 	0.97662 0.97237 0.58249 -0.11000
H 	H 	0.16635 0.02690 0.84334 0.03300
H 	H 	0.13984 0.00761 0.77937 0.04400
H 	H 	0.00280 0.05406 0.75963 0.04600
H 	H 	0.02834 0.07226 0.82336 0.02600
H 	H 	0.95631 0.93719 0.69866 0.03200
H 	H 	0.92452 0.91426 0.63329 0.03800
H 	H 	0.10932 0.06306 0.67874 0.03900
H 	H 	0.14108 0.08634 0.74416 0.03900
C 	C 	0.10986 0.01690 0.13115 -0.09100
C 	C 	0.14462 0.06773 0.16741 0.01900
C 	C 	0.12705 0.06340 0.19202 -0.06800
C 	C 	0.07475 0.00815 0.18066 0.03000
C 	C 	0.04239 0.95617 0.14543 -0.07100
C 	C 	0.06000 0.96044 0.12083 0.01400
C 	C 	0.05219 0.00559 0.20485 0.01800
C 	C 	0.99222 0.99396 0.19127 -0.05800
C 	C 	0.97081 0.99142 0.21420 -0.07300
C 	C 	0.00920 0.00057 0.25080 0.05000
C 	C 	0.06920 0.01265 0.26448 -0.05000
C 	C 	0.09073 0.01533 0.24166 -0.03600
C 	C 	0.98585 0.99379 0.27350 -0.00000
C 	C 	0.96791 0.98707 0.29319 -0.10600
H 	H 	0.18373 0.11130 0.17594 0.02700
H 	H 	0.15283 0.10355 0.21939 0.04400
H 	H 	0.00254 0.91300 0.13667 0.04900
H 	H 	0.03276 0.92086 0.09294 0.03800
H 	H 	0.96227 0.98683 0.16298 0.03300
H 	H 	0.92424 0.98176 0.20336 0.03900
H 	H 	0.09875 0.01897 0.29255 0.04400
H 	H 	0.13706 0.02436 0.25241 0.03600
C 	C 	0.25465 0.42880 0.45177 -0.08400
C 	C 	0.22435 0.46363 0.45920 0.04600
C 	C 	0.11977 0.35946 0.41972 -0.07300
C 	C 	0.16560 0.35133 0.45040 0.02000
C 	C 	0.22009 0.36274 0.44659 -0.07300
H 	H 	0.25264 0.42530 0.42575 0.04300
H 	H 	0.30500 0.45501 0.47604 0.04100
C 	C 	0.25648 0.52638 0.46405 -0.03200
H 	H 	0.08020 0.35180 0.42183 0.04100
H 	H 	0.09927 0.32436 0.39069 0.04300
C 	C 	0.13265 0.28876 0.44561 0.03000
H 	H 	0.20161 0.32771 0.41810 0.04200
H 	H 	0.25397 0.35741 0.46837 0.04000
C 	C 	0.19334 0.40125 0.49033 -0.07300
H 	H 	0.22668 0.39673 0.51301 0.04000
H 	H 	0.15529 0.39447 0.49390 0.04000
C 	C 	0.22784 0.46720 0.49550 -0.08400
H 	H 	0.20625 0.49186 0.50153 0.04200
H 	H 	0.27766 0.49415 0.52064 0.04200
C 	C 	0.15427 0.42540 0.42489 -0.08400
H 	H 	0.13111 0.44917 0.42944 0.04300
H 	H 	0.15020 0.42177 0.39831 0.04400
C 	C 	0.28080 0.57774 0.46774 -0.02700
C 	C 	0.10576 0.23792 0.44209 -0.11200
C 	C 	0.59620 0.84720 0.50727 -0.08400
C 	C 	0.53301 0.80000 0.46737 0.04500
C 	C 	0.57695 0.86178 0.43979 -0.07200
C 	C 	0.62608 0.84729 0.46085 0.01800
C 	C 	0.65094 0.87501 0.50343 -0.07300
H 	H 	0.59401 0.88521 0.52241 0.04000
H 	H 	0.60538 0.82407 0.52497 0.04100
C 	C 	0.48068 0.77334 0.47067 -0.03300
H 	H 	0.55804 0.84225 0.40906 0.03800
H 	H 	0.59938 0.91280 0.45183 0.03800
C 	C 	0.67758 0.87301 0.45675 0.03200
H 	H 	0.67486 0.92629 0.51673 0.03800
H 	H 	0.68623 0.86515 0.51930 0.04000
C 	C 	0.59282 0.77587 0.44339 -0.07200
H 	H 	0.62690 0.76396 0.45805 0.04100
H 	H 	0.57422 0.75452 0.41273 0.04000
C 	C 	0.53819 0.74812 0.44722 -0.08400
H 	H 	0.49355 0.71357 0.41839 0.04200
H 	H 	0.54621 0.72300 0.46373 0.04100
C 	C 	0.52229 0.83400 0.44362 -0.08400
H 	H 	0.47733 0.80124 0.41470 0.04200
H 	H 	0.51861 0.87177 0.45747 0.04100
C 	C 	0.43706 0.75115 0.47260 -0.02800
C 	C 	0.71847 0.89203 0.45221 -0.11900
C 	C 	0.13438 0.83479 0.48019 -0.07400
C 	C 	0.11020 0.83442 0.44138 0.02400
C 	C 	0.21274 0.85480 0.45153 -0.08300
C 	C 	0.18703 0.79608 0.45573 0.04500
C 	C 	0.17960 0.81223 0.48864 -0.08300
H 	H 	0.15925 0.88239 0.50349 0.03800
H 	H 	0.09422 0.80416 0.47980 0.04000
C 	C 	0.06676 0.85517 0.43270 0.01900
H 	H 	0.21839 0.84461 0.42799 0.04200
H 	H 	0.25987 0.89245 0.47815 0.04100
C 	C 	0.22916 0.77381 0.46320 -0.03200
H 	H 	0.22607 0.84904 0.51599 0.04100
H 	H 	0.16101 0.77083 0.49229 0.04300
C 	C 	0.12132 0.74502 0.41821 -0.08300
H 	H 	0.10150 0.70223 0.42040 0.04300
H 	H 	0.12505 0.73256 0.39397 0.04300
C 	C 	0.07624 0.76751 0.40979 -0.07400
H 	H 	0.05846 0.76578 0.38153 0.04200
H 	H 	0.03491 0.73547 0.40797 0.04200
C 	C 	0.16756 0.87736 0.44309 -0.07400
H 	H 	0.15170 0.87796 0.41553 0.04200
H 	H 	0.19311 0.92580 0.46567 0.04000
C 	C 	0.03020 0.87083 0.42395 -0.09900
C 	C 	0.26170 0.75340 0.46807 -0.02700
C 	C 	0.29983 0.43753 0.98459 -0.07200
C 	C 	0.34496 0.42798 0.01464 0.01900
C 	C 	0.43433 0.50412 0.01566 -0.08500
C 	C 	0.40570 0.54038 0.02397 0.04400
C 	C 	0.33548 0.50350 0.99006 -0.08300
H 	H 	0.27836 0.40245 0.95531 0.04200
H 	H 	0.26088 0.43089 0.98718 0.04100
C 	C 	0.31089 0.36529 0.00949 0.02900
H 	H 	0.48472 0.52932 0.03962 0.04000
H 	H 	0.43187 0.50058 0.98951 0.04300
C 	C 	0.43894 0.60318 0.02907 -0.03300
H 	H 	0.33099 0.49989 0.96337 0.04300
H 	H 	0.31349 0.52829 0.99523 0.04300
C 	C 	0.40974 0.54393 0.06041 -0.08300
H 	H 	0.38933 0.56960 0.06707 0.04000
H 	H 	0.45964 0.56990 0.08526 0.03900
C 	C 	0.37407 0.47794 0.05493 -0.07300
H 	H 	0.40695 0.47242 0.07718 0.03800
H 	H 	0.33665 0.47214 0.05898 0.03800
C 	C 	0.39862 0.43804 0.01017 -0.07400
H 	H 	0.43199 0.43169 0.03151 0.03900
H 	H 	0.37916 0.40297 0.98141 0.04200
C 	C 	0.28312 0.31422 0.00551 -0.11400
C 	C 	0.46411 0.65456 0.03287 -0.02900
C 	C 	0.77265 0.95144 0.01540 -0.08200
C 	C 	0.80889 0.91925 0.02347 0.02000
C 	C 	0.78213 0.90272 0.06961 -0.08400
C 	C 	0.71764 0.87367 0.03173 0.04500
C 	C 	0.71908 0.92468 0.02025 -0.08200
H 	H 	0.80519 0.00225 0.03525 0.04600
H 	H 	0.75256 0.94471 0.98589 0.04000
C 	C 	0.85921 0.94393 0.01828 0.02500
H 	H 	0.78270 0.86712 0.07853 0.04000
H 	H 	0.79031 0.94030 0.09274 0.04000
C 	C 	0.66605 0.84790 0.03580 -0.03300
H 	H 	0.72601 0.96273 0.04240 0.03900
H 	H 	0.67345 0.90521 0.99304 0.04100
C 	C 	0.70831 0.82189 0.00031 -0.08600
H 	H 	0.66245 0.80023 0.97268 0.04300
H 	H 	0.70741 0.78467 0.00785 0.04100
C 	C 	0.76184 0.84862 0.99547 -0.06900
H 	H 	0.78648 0.82413 0.00068 0.03800
H 	H 	0.74148 0.83966 0.96552 0.03900
C 	C 	0.83581 0.92953 0.06475 -0.07300
H 	H 	0.86201 0.90675 0.07138 0.03800
H 	H 	0.86960 0.97990 0.08557 0.03700
C 	C 	0.89913 0.96199 0.01287 -0.11600
C 	C 	0.62265 0.82642 0.03803 -0.02900
C 	C 	0.39886 0.93206 0.01333 -0.08200
C 	C 	0.37283 0.87415 0.01821 0.04400
C 	C 	0.32020 0.91458 0.04176 -0.07300
C 	C 	0.29629 0.91296 0.00261 0.01700
C 	C 	0.35387 0.95488 0.00416 -0.08100
H 	H 	0.44597 0.96994 0.03988 0.03900
H 	H 	0.40463 0.92083 0.98991 0.04100
C 	C 	0.41478 0.85158 0.02638 -0.03300
H 	H 	0.27989 0.88469 0.04149 0.03700
H 	H 	0.34515 0.96258 0.06464 0.03400
C 	C 	0.25296 0.93388 0.99326 0.03000
H 	H 	0.37950 0.00368 0.02632 0.04600
H 	H 	0.33822 0.95456 0.97637 0.04200
C 	C 	0.26224 0.84551 0.97163 -0.07100
H 	H 	0.24467 0.84286 0.94315 0.04000
H 	H 	0.22077 0.81416 0.96994 0.04000
C 	C 	0.30713 0.82275 0.98078 -0.08300
H 	H 	0.28707 0.78054 0.98344 0.04300
H 	H 	0.31097 0.80926 0.95666 0.04300
C 	C 	0.36522 0.89175 0.05094 -0.08400
H 	H 	0.34639 0.85097 0.05506 0.04100
H 	H 	0.41167 0.92883 0.07822 0.04000
C 	C 	0.44714 0.83091 0.03184 -0.02900
C 	C 	0.21632 0.94943 0.98398 -0.13100
C 	C 	0.65820 0.11360 0.35250 -0.08500
C 	C 	0.65787 0.14140 0.38725 0.04600
C 	C 	0.67901 0.06607 0.40764 -0.07100
C 	C 	0.73225 0.10025 0.40374 0.01600
C 	C 	0.70204 0.08935 0.36221 -0.07100
H 	H 	0.60985 0.07489 0.32753 0.04200
H 	H 	0.67441 0.14939 0.34421 0.04000
C 	C 	0.61694 0.16504 0.37882 -0.03300
H 	H 	0.69924 0.07313 0.43723 0.04200
H 	H 	0.65110 0.01530 0.38819 0.04100
C 	C 	0.77417 0.07783 0.41378 0.03100
H 	H 	0.67463 0.03905 0.34189 0.03500
H 	H 	0.73918 0.11356 0.35857 0.03400
C 	C 	0.76967 0.17068 0.43107 -0.07100
H 	H 	0.80812 0.19654 0.42878 0.03500
H 	H 	0.79184 0.18000 0.46117 0.03800
C 	C 	0.72600 0.19484 0.42140 -0.08400
H 	H 	0.72736 0.21567 0.44688 0.04100
H 	H 	0.74360 0.23225 0.41449 0.04000
C 	C 	0.63531 0.09025 0.39796 -0.08400
H 	H 	0.63473 0.10887 0.42293 0.04200
H 	H 	0.58651 0.05106 0.37387 0.04300
C 	C 	0.58493 0.18603 0.37369 -0.02800
C 	C 	0.80920 0.06067 0.42406 -0.13000
C 	C 	0.73070 0.57881 0.42281 -0.07200
C 	C 	0.68389 0.59121 0.39643 0.01800
C 	C 	0.61428 0.47616 0.34791 -0.08400
C 	C 	0.62431 0.47743 0.38533 0.04500
C 	C 	0.69571 0.51200 0.41630 -0.08400
H 	H 	0.76649 0.58526 0.41711 0.03800
H 	H 	0.75611 0.61256 0.45322 0.04000
C 	C 	0.71757 0.65472 0.40273 0.03000
H 	H 	0.56337 0.45183 0.32514 0.04000
H 	H 	0.63169 0.44998 0.33769 0.04000
C 	C 	0.59181 0.41400 0.37939 -0.03300
H 	H 	0.71484 0.48659 0.40750 0.04000
H 	H 	0.70446 0.51388 0.44361 0.04100
C 	C 	0.59970 0.51447 0.39863 -0.08400
H 	H 	0.60645 0.51635 0.42557 0.04100
H 	H 	0.54851 0.49089 0.37687 0.04100
C 	C 	0.63475 0.58142 0.40516 -0.07200
H 	H 	0.60030 0.58982 0.38652 0.03900
H 	H 	0.65823 0.61524 0.43522 0.04000
C 	C 	0.64931 0.54306 0.35443 -0.07200
H 	H 	0.61513 0.55067 0.33477 0.03700
H 	H 	0.68342 0.54878 0.34732 0.03600
C 	C 	0.74591 0.70666 0.40808 -0.11900
C 	C 	0.56724 0.36236 0.37522 -0.02800
C 	C 	0.34642 0.21293 0.42518 -0.08300
C 	C 	0.33895 0.15750 0.39748 0.04500
C 	C 	0.30161 0.09390 0.42640 -0.07400
C 	C 	0.25780 0.11760 0.41395 0.02300
C 	C 	0.29873 0.18948 0.43487 -0.07400
H 	H 	0.39489 0.24247 0.45195 0.04200
H 	H 	0.33894 0.24251 0.41209 0.04200
C 	C 	0.38454 0.17988 0.38851 -0.03200
H 	H 	0.27348 0.04232 0.41171 0.04200
H 	H 	0.32734 0.11031 0.45761 0.04000
C 	C 	0.21222 0.09547 0.42295 0.02800
H 	H 	0.32443 0.20782 0.46625 0.04100
H 	H 	0.26849 0.20789 0.42640 0.04300
C 	C 	0.22322 0.09408 0.37041 -0.07500
H 	H 	0.19145 0.11055 0.36064 0.04600
H 	H 	0.19358 0.04250 0.35460 0.04400
C 	C 	0.27089 0.11753 0.36071 -0.08300
H 	H 	0.26399 0.07715 0.34026 0.04400
H 	H 	0.26188 0.14518 0.34632 0.04400
C 	C 	0.34931 0.11735 0.41671 -0.08300
H 	H 	0.34399 0.07695 0.39740 0.04300
H 	H 	0.39784 0.14489 0.44330 0.04200
C 	C 	0.42266 0.19828 0.38179 -0.02700
C 	C 	0.17389 0.07788 0.42958 -0.10300
C 	C 	0.95028 0.24125 0.99493 -0.06800
C 	C 	0.91310 0.17084 0.96764 0.00900
C 	C 	0.81566 0.16055 0.96116 -0.08500
C 	C 	0.83855 0.21171 0.95054 0.04700
C 	C 	0.90650 0.26526 0.98488 -0.08400
H 	H 	0.97204 0.25056 0.02500 0.03500
H 	H 	0.98902 0.26720 0.99287 0.03300
C 	C 	0.95506 0.14853 0.97790 0.04000
H 	H 	0.76698 0.12129 0.93693 0.04200
H 	H 	0.81462 0.17911 0.98594 0.04200
C 	C 	0.79752 0.23518 0.94170 -0.03300
H 	H 	0.90739 0.28602 0.01018 0.04000
H 	H 	0.92432 0.30269 0.97804 0.03900
C 	C 	0.83950 0.18401 0.91605 -0.08600
H 	H 	0.85595 0.21982 0.90782 0.04000
H 	H 	0.79129 0.14524 0.89095 0.04100
C 	C 	0.88344 0.15993 0.92613 -0.06900
H 	H 	0.85622 0.10964 0.90585 0.03300
H 	H 	0.92087 0.18423 0.92272 0.03200
C 	C 	0.85948 0.13652 0.97122 -0.06800
H 	H 	0.83175 0.08576 0.95180 0.03900
H 	H 	0.87932 0.14360 0.00079 0.03800
C 	C 	0.99000 0.13127 0.98801 -0.15400
C 	C 	0.76538 0.25602 0.93614 -0.02800
C 	C 	0.78168 0.58391 0.95923 -0.08400
C 	C 	0.80393 0.54548 0.94436 0.04500
C 	C 	0.82644 0.61016 0.91250 -0.07200
C 	C 	0.86365 0.65874 0.95482 0.01800
C 	C 	0.81683 0.65056 0.96539 -0.07200
H 	H 	0.73030 0.56110 0.93847 0.04100
H 	H 	0.79031 0.58627 0.98660 0.04100
C 	C 	0.77138 0.48238 0.93882 -0.03300
H 	H 	0.85887 0.61474 0.90409 0.03500
H 	H 	0.79203 0.61839 0.89364 0.03700
C 	C 	0.89746 0.72198 0.96083 0.02600
H 	H 	0.78223 0.65960 0.94757 0.03900
H 	H 	0.84223 0.68472 0.99570 0.03800
C 	C 	0.91072 0.64549 0.98009 -0.07100
H 	H 	0.93803 0.67954 0.01071 0.03700
H 	H 	0.94489 0.65079 0.97306 0.03600
C 	C 	0.87565 0.57898 0.97395 -0.08300
H 	H 	0.89310 0.55255 0.96400 0.03900
H 	H 	0.88625 0.58130 0.00164 0.03900
C 	C 	0.79130 0.54354 0.90635 -0.08400
H 	H 	0.80698 0.51635 0.89501 0.04000
H 	H 	0.74012 0.51995 0.88456 0.04100
C 	C 	0.74686 0.43107 0.93509 -0.02800
C 	C 	0.92598 0.77383 0.96613 -0.11700
C 	C 	0.53274 0.19678 0.98231 -0.08200
C 	C 	0.51810 0.22953 0.95820 0.04500
C 	C 	0.40242 0.15986 0.92985 -0.07300
C 	C 	0.43539 0.19045 0.97360 0.02000
C 	C 	0.48408 0.17379 0.99137 -0.07200
H 	H 	0.53195 0.15668 0.96659 0.04200
H 	H 	0.58062 0.22927 0.00946 0.04000
C 	C 	0.56438 0.25141 0.94971 -0.03200
H 	H 	0.36719 0.17113 0.91627 0.04400
H 	H 	0.37677 0.10852 0.91721 0.04200
C 	C 	0.38896 0.16888 0.98201 0.02900
H 	H 	0.46003 0.12273 0.97996 0.04000
H 	H 	0.50872 0.19533 0.02283 0.03800
C 	C 	0.47077 0.26182 0.99006 -0.07200
H 	H 	0.49518 0.28515 0.02150 0.03900
H 	H 	0.43695 0.27521 0.97773 0.04200
C 	C 	0.51938 0.28478 0.98100 -0.08200
H 	H 	0.50876 0.30910 0.96433 0.04200
H 	H 	0.56700 0.31907 0.00812 0.04000
C 	C 	0.45106 0.18285 0.92080 -0.08400
H 	H 	0.43907 0.20513 0.90293 0.04300
H 	H 	0.44864 0.14249 0.90385 0.04300
C 	C 	0.60280 0.26936 0.94318 -0.02800
C 	C 	0.35003 0.15196 0.98822 -0.11000
