data_crystal

_cell_length_a 25.94850
_cell_length_b 26.69372
_cell_length_c 26.59104
_cell_angle_alpha 95.49175
_cell_angle_beta  95.49199
_cell_angle_gamma 125.78631

_symmetry_space_group_name_	'P 1'
_symmetry_space_group_name_H-M	'P 1'

loop_
_symmetry_equiv_pos_as_xyz
  x,y,z

loop_
_atom_site_label
_atom_site_type_symbol
_atom_site_fract_x
_atom_site_fract_y
_atom_site_fract_z
_atom_site_charge
C 	C 	0.02677 0.99963 0.44608 0.06900
O 	O 	0.19029 0.99935 0.33913 -0.07600
C 	C 	0.97222 0.03417 0.99630 0.11000
C 	C 	0.03945 0.06712 0.00159 -0.13500
C 	C 	0.06610 0.03408 0.99922 0.13300
C 	C 	0.02549 0.96828 0.99135 -0.10300
C 	C 	0.95847 0.93542 0.98637 0.09600
C 	C 	0.93186 0.96833 0.98842 -0.09100
H 	H 	0.07079 0.11806 0.00773 0.09000
H 	H 	0.04605 0.94272 0.98942 0.09600
H 	H 	0.87992 0.94283 0.98441 0.09000
C 	C 	0.92867 0.99288 0.43829 0.07800
C 	C 	0.99587 0.02835 0.44145 -0.06800
C 	C 	0.99066 0.93557 0.44814 -0.06800
C 	C 	0.92369 0.90000 0.44559 0.07300
C 	C 	0.89263 0.92870 0.44090 -0.07600
H 	H 	0.02392 0.07801 0.43992 0.08500
H 	H 	0.01461 0.91336 0.45158 0.07400
H 	H 	0.84072 0.90112 0.43856 0.08100
Cu	Cu	0.66350 0.27115 0.00799 0.92200
Cu	Cu	0.67003 0.22848 0.89062 0.89100
Cu	Cu	0.66247 0.34480 0.92743 0.91700
Cu	Cu	0.65638 0.38543 0.03595 0.90000
C 	C 	0.68691 0.32733 0.11335 0.29000
O 	O 	0.57212 0.22541 0.02172 -0.35400
C 	C 	0.66066 0.30349 0.82571 0.28800
O 	O 	0.70011 0.36317 0.99831 -0.61600
O 	O 	0.63163 0.25747 0.93335 -0.62300
O 	O 	0.72065 0.24360 0.00631 -0.36200
O 	O 	0.66483 0.17223 0.93151 -0.40400
O 	O 	0.68573 0.37443 0.10354 -0.35600
O 	O 	0.69939 0.43096 0.92342 -0.35500
C 	C 	0.70168 0.47004 0.95949 0.30600
C 	C 	0.53841 0.24701 0.01309 0.28900
O 	O 	0.56416 0.30010 0.99656 -0.35300
O 	O 	0.66664 0.44944 0.99580 -0.35300
O 	O 	0.70103 0.29934 0.07977 -0.34500
C 	C 	0.70652 0.19445 0.97461 0.32400
O 	O 	0.63520 0.32368 0.85372 -0.35800
O 	O 	0.69934 0.29226 0.84827 -0.40100
H 	H 	0.74777 0.39461 0.00582 0.16400
H 	H 	0.58386 0.22778 0.92422 0.17200
Cu	Cu	0.74006 0.34096 0.43570 0.93300
Cu	Cu	0.73756 0.28524 0.54069 0.88400
Cu	Cu	0.63424 0.29522 0.50020 0.90400
Cu	Cu	0.61590 0.33311 0.40174 0.90300
C 	C 	0.69408 0.32790 0.32891 0.29000
O 	O 	0.77374 0.43239 0.44062 -0.33500
C 	C 	0.67554 0.30828 0.61208 0.28900
O 	O 	0.63871 0.28465 0.42880 -0.63800
O 	O 	0.73020 0.34323 0.50853 -0.63700
O 	O 	0.78912 0.30474 0.43678 -0.35300
O 	O 	0.72188 0.23008 0.48086 -0.40900
O 	O 	0.66419 0.35171 0.34364 -0.36600
O 	O 	0.54071 0.24390 0.48736 -0.35400
C 	C 	0.50442 0.24829 0.45237 0.31300
C 	C 	0.74162 0.45191 0.45873 0.30400
O 	O 	0.68214 0.41046 0.46481 -0.38400
O 	O 	0.52995 0.29108 0.42276 -0.37400
O 	O 	0.73285 0.32510 0.36259 -0.34100
C 	C 	0.76387 0.24972 0.45003 0.30700
O 	O 	0.62942 0.29329 0.57380 -0.36100
O 	O 	0.72993 0.31854 0.60373 -0.39400
H 	H 	0.61312 0.24036 0.41078 0.19200
H 	H 	0.75459 0.38575 0.52995 0.19500
C 	C 	0.65746 0.30655 0.77048 -0.06100
C 	C 	0.61443 0.25109 0.73340 0.00400
C 	C 	0.61752 0.25234 0.68084 0.00600
C 	C 	0.66392 0.30908 0.66539 -0.05800
C 	C 	0.70334 0.36546 0.70209 0.00700
C 	C 	0.70016 0.36420 0.75467 0.01100
C 	C 	0.56744 0.19266 0.74945 0.07700
C 	C 	0.74698 0.42466 0.68568 0.10000
C 	C 	0.74134 0.42200 0.79255 0.10500
C 	C 	0.57414 0.19497 0.64280 0.09400
N 	N 	0.77417 0.46810 0.82277 -0.09100
N 	N 	0.53952 0.14923 0.61243 -0.09300
N 	N 	0.78179 0.47188 0.67254 -0.09100
N 	N 	0.52997 0.14606 0.76228 -0.10800
C 	C 	0.69813 0.32082 0.27399 -0.05300
C 	C 	0.75250 0.36921 0.25632 0.01000
C 	C 	0.75073 0.36877 0.20310 0.00800
C 	C 	0.69407 0.32080 0.16766 -0.04900
C 	C 	0.64227 0.26933 0.18512 0.00700
C 	C 	0.64442 0.26934 0.23834 0.00700
C 	C 	0.80931 0.42049 0.29292 0.10600
C 	C 	0.58653 0.21683 0.14853 0.10300
C 	C 	0.59111 0.21677 0.25652 0.09200
C 	C 	0.80706 0.41764 0.18476 0.10600
N 	N 	0.54861 0.17485 0.27108 -0.09500
N 	N 	0.85198 0.45662 0.17010 -0.09600
N 	N 	0.54188 0.17471 0.11958 -0.09100
N 	N 	0.85460 0.46140 0.32215 -0.09000
C 	C 	0.84649 0.72713 0.40686 -0.05100
C 	C 	0.83573 0.70759 0.45433 0.01400
C 	C 	0.84865 0.75024 0.49810 0.08000
C 	C 	0.87390 0.81238 0.49418 -0.04400
C 	C 	0.88619 0.83232 0.44697 -0.01400
C 	C 	0.87115 0.78906 0.40286 0.08800
C 	C 	0.81075 0.64227 0.45786 0.03500
N 	N 	0.83714 0.73089 0.54674 -0.02000
H 	H 	0.88542 0.84556 0.52815 0.07900
N 	N 	0.88230 0.80834 0.35415 -0.02100
H 	H 	0.83572 0.69417 0.37300 0.08400
C 	C 	0.74597 0.59188 0.43650 0.05800
C 	C 	0.72396 0.53005 0.43744 0.00200
C 	C 	0.76570 0.51774 0.46005 -0.08900
C 	C 	0.83022 0.56824 0.48244 0.12800
C 	C 	0.85254 0.63019 0.48077 -0.07200
N 	N 	0.70252 0.60334 0.41334 -0.01600
H 	H 	0.67433 0.49144 0.42016 0.05500
N 	N 	0.87273 0.55697 0.50790 -0.02300
H 	H 	0.90228 0.66894 0.49757 0.09000
O 	O 	0.91702 0.79917 0.32822 -0.08000
O 	O 	0.85483 0.83187 0.33444 -0.07400
O 	O 	0.88384 0.76130 0.58664 -0.07700
O 	O 	0.77909 0.68555 0.55191 -0.07100
O 	O 	0.92822 0.57933 0.49445 -0.07800
O 	O 	0.85819 0.52860 0.54706 -0.09200
O 	O 	0.67231 0.57689 0.36599 -0.08500
O 	O 	0.69001 0.63690 0.44054 -0.07300
C 	C 	0.76290 0.10884 0.41518 -0.07300
C 	C 	0.82921 0.13681 0.42640 0.03200
C 	C 	0.87430 0.20292 0.43750 0.06100
C 	C 	0.85243 0.24011 0.44083 -0.00300
C 	C 	0.78594 0.21191 0.43358 -0.09000
C 	C 	0.74102 0.14602 0.41803 0.12500
C 	C 	0.85107 0.09664 0.42826 0.01500
N 	N 	0.94229 0.23240 0.44648 -0.01700
H 	H 	0.88721 0.29077 0.45180 0.06800
N 	N 	0.67318 0.11682 0.40490 -0.02300
H 	H 	0.72826 0.05812 0.40467 0.08900
C 	C 	0.84736 0.06834 0.47128 0.07900
C 	C 	0.86991 0.03183 0.47308 -0.04100
C 	C 	0.89621 0.02326 0.43237 -0.01500
C 	C 	0.89703 0.04907 0.38825 0.08900
C 	C 	0.87511 0.08616 0.38670 -0.05200
N 	N 	0.82119 0.07703 0.51340 -0.01900
H 	H 	0.86884 0.01180 0.50690 0.07700
N 	N 	0.92004 0.03762 0.34496 -0.02300
H 	H 	0.87656 0.10662 0.35308 0.08500
O 	O 	0.63210 0.06841 0.42426 -0.08000
O 	O 	0.65221 0.13648 0.37145 -0.08800
O 	O 	0.97845 0.27127 0.41773 -0.07700
O 	O 	0.96878 0.22426 0.48577 -0.07400
O 	O 	0.89477 0.98026 0.32322 -0.07100
O 	O 	0.96374 0.08443 0.32554 -0.07400
O 	O 	0.77201 0.02849 0.52729 -0.08300
O 	O 	0.84940 0.13298 0.54021 -0.08100
C 	C 	0.20785 0.11383 0.49282 -0.05000
C 	C 	0.23052 0.10593 0.44917 0.01400
C 	C 	0.18610 0.06300 0.40445 0.08200
C 	C 	0.11960 0.02822 0.40400 -0.04500
C 	C 	0.09694 0.03633 0.44756 -0.01200
C 	C 	0.14132 0.07921 0.49229 0.08600
C 	C 	0.30084 0.14267 0.45051 0.03400
N 	N 	0.20841 0.05489 0.35935 -0.02000
H 	H 	0.08550 0.99535 0.36954 0.08500
N 	N 	0.11896 0.08746 0.53731 -0.02200
H 	H 	0.24195 0.14660 0.52732 0.08500
C 	C 	0.33808 0.20748 0.44961 0.06100
C 	C 	0.40464 0.24159 0.45074 0.00100
C 	C 	0.43443 0.21150 0.45193 -0.08500
C 	C 	0.39705 0.14651 0.45254 0.12700
C 	C 	0.33067 0.11269 0.45254 -0.07100
N 	N 	0.30835 0.23876 0.44731 -0.01700
H 	H 	0.43317 0.29157 0.45048 0.07200
N 	N 	0.42591 0.11435 0.45160 -0.02300
H 	H 	0.30202 0.06277 0.45306 0.09000
O 	O 	0.13744 0.14312 0.55759 -0.07600
O 	O 	0.08391 0.04026 0.56006 -0.08600
O 	O 	0.24306 0.10209 0.33648 -0.06900
O 	O 	0.45190 0.11227 0.41273 -0.08600
O 	O 	0.42167 0.08302 0.48756 -0.07800
O 	O 	0.32878 0.28685 0.48270 -0.07900
O 	O 	0.26398 0.22194 0.40806 -0.07100
C 	C 	0.88216 0.77136 0.01235 -0.06900
C 	C 	0.84314 0.73485 0.96435 0.03200
C 	C 	0.83949 0.76421 0.92426 0.07800
C 	C 	0.87601 0.82983 0.93231 -0.04000
C 	C 	0.91621 0.86640 0.97996 -0.00600
C 	C 	0.91829 0.83690 0.02052 0.07900
C 	C 	0.80540 0.66585 0.95668 0.03100
N 	N 	0.79894 0.72752 0.87529 -0.01900
H 	H 	0.87419 0.85246 0.90115 0.07900
N 	N 	0.95692 0.87345 0.07009 -0.02300
H 	H 	0.88405 0.74872 0.04348 0.08500
C 	C 	0.83646 0.63691 0.95278 0.06500
C 	C 	0.80129 0.57219 0.95157 -0.00100
C 	C 	0.73544 0.53606 0.95424 -0.08400
C 	C 	0.70354 0.56440 0.95512 0.13000
C 	C 	0.73889 0.62928 0.95693 -0.07000
N 	N 	0.90407 0.67342 0.95121 -0.01600
H 	H 	0.82559 0.55024 0.94976 0.06800
N 	N 	0.63513 0.52727 0.95319 -0.02300
H 	H 	0.71470 0.65132 0.95883 0.09300
O 	O 	0.99934 0.86687 0.09148 -0.07700
O 	O 	0.94708 0.91059 0.09511 -0.07400
O 	O 	0.75487 0.73316 0.85626 -0.07600
O 	O 	0.80908 0.69189 0.84815 -0.06800
O 	O 	0.59585 0.48058 0.91511 -0.07200
O 	O 	0.61196 0.54294 0.98744 -0.07100
O 	O 	0.94279 0.67114 0.98410 -0.07500
O 	O 	0.92628 0.70605 0.91509 -0.06800
C 	C 	0.85481 0.19747 0.99534 -0.04600
C 	C 	0.82648 0.13324 0.99052 0.02200
C 	C 	0.75855 0.08910 0.98195 0.06700
C 	C 	0.71977 0.10972 0.97785 0.00100
C 	C 	0.74808 0.17391 0.98162 -0.09100
C 	C 	0.81611 0.21799 0.99001 0.11900
C 	C 	0.86818 0.11235 0.99355 0.03700
N 	N 	0.72879 0.02328 0.97691 -0.01100
H 	H 	0.66757 0.07568 0.97108 0.07200
N 	N 	0.84593 0.28329 0.99093 -0.01300
H 	H 	0.90701 0.23143 0.00175 0.07200
C 	C 	0.90003 0.11433 0.95283 0.07500
C 	C 	0.93802 0.09284 0.95578 -0.03800
C 	C 	0.94366 0.06836 0.99857 -0.01100
C 	C 	0.91417 0.06898 0.04028 0.08000
C 	C 	0.87645 0.09081 0.03746 -0.07100
N 	N 	0.89273 0.13686 0.90794 -0.01800
H 	H 	0.96078 0.09256 0.92373 0.08100
N 	N 	0.92162 0.04651 0.08520 -0.02200
H 	H 	0.85327 0.09068 0.06933 0.08700
O 	O 	0.83661 0.30173 0.94973 -0.11200
O 	O 	0.88676 0.32474 0.03148 -0.09300
O 	O 	0.68976 0.99099 0.00732 -0.09300
O 	O 	0.73707 0.99480 0.93968 -0.07200
O 	O 	0.97914 0.06995 0.10993 -0.07800
O 	O 	0.87097 0.00476 0.10277 -0.07600
O 	O 	0.94349 0.18326 0.89365 -0.07700
O 	O 	0.83591 0.10804 0.87928 -0.07800
C 	C 	0.38383 0.20818 0.04981 -0.06900
C 	C 	0.33805 0.14909 0.01842 0.02000
C 	C 	0.35884 0.11916 0.98937 0.07300
C 	C 	0.42510 0.15011 0.99016 0.01600
C 	C 	0.47067 0.21049 0.01973 -0.10000
C 	C 	0.44998 0.23873 0.05104 0.12300
C 	C 	0.26847 0.12036 0.01403 0.00500
N 	N 	0.31275 0.05790 0.95832 -0.01700
H 	H 	0.44093 0.12790 0.96661 0.06300
N 	N 	0.49614 0.29865 0.08399 -0.02900
H 	H 	0.36800 0.23069 0.07296 0.08800
C 	C 	0.23646 0.09569 0.05510 0.07500
C 	C 	0.17091 0.07015 0.05072 -0.02900
C 	C 	0.13668 0.06812 0.00546 -0.06200
C 	C 	0.16890 0.09357 0.96468 0.11100
C 	C 	0.23471 0.12003 0.96936 -0.04300
N 	N 	0.27027 0.09604 0.10113 -0.01900
H 	H 	0.14613 0.05032 0.08203 0.07800
N 	N 	0.13474 0.09194 0.91823 -0.02500
H 	H 	0.25942 0.13966 0.93798 0.08500
O 	O 	0.53990 0.30617 0.11900 -0.10500
O 	O 	0.49175 0.34446 0.08124 -0.09500
O 	O 	0.31404 0.04827 0.90972 -0.08300
O 	O 	0.27200 0.01099 0.97922 -0.06500
O 	O 	0.15315 0.14408 0.90318 -0.07900
O 	O 	0.08839 0.03831 0.88909 -0.08100
O 	O 	0.27123 0.12209 0.14548 -0.07600
O 	O 	0.29620 0.06657 0.09909 -0.07300
