data_crystal

_cell_length_a 20.05211
_cell_length_b 21.33740
_cell_length_c 43.24707
_cell_angle_alpha 60.61324
_cell_angle_beta  119.08241
_cell_angle_gamma 133.28125

_symmetry_space_group_name_	'P 1'
_symmetry_space_group_name_H-M	'P 1'

loop_
_symmetry_equiv_pos_as_xyz
  x,y,z

loop_
_atom_site_label
_atom_site_type_symbol
_atom_site_fract_x
_atom_site_fract_y
_atom_site_fract_z
_atom_site_charge
C 	C 	0.31935 0.68562 0.12146 0.14700
N 	N 	0.40943 0.71344 0.13031 -0.12600
C 	C 	0.42728 0.66683 0.12677 0.15300
N 	N 	0.35561 0.59086 0.11589 -0.12900
C 	C 	0.26559 0.56032 0.10859 0.15300
N 	N 	0.24669 0.60745 0.11138 -0.12800
C 	C 	0.28155 0.67612 0.61745 0.14900
N 	N 	0.37377 0.70763 0.62848 -0.12700
C 	C 	0.39879 0.66058 0.63030 0.15500
N 	N 	0.33164 0.58028 0.62250 -0.12400
C 	C 	0.23958 0.54770 0.61139 0.15200
N 	N 	0.21375 0.59569 0.60860 -0.11800
Co	Co	0.00060 0.07579 0.06846 1.17900
Co	Co	0.05921 0.03417 0.02557 1.16500
Co	Co	0.11235 0.92499 0.01988 1.17600
C 	C 	0.22535 0.12158 0.00003 0.32200
O 	O 	0.03312 0.11454 0.02179 -0.46600
C 	C 	0.06826 0.21229 0.10159 0.30100
C 	C 	0.22945 0.91175 0.09450 0.30400
O 	O 	0.23416 0.96207 0.06085 -0.36800
O 	O 	0.18020 0.89786 0.11225 -0.34600
O 	O 	0.08984 0.19397 0.08401 -0.38000
O 	O 	0.07729 0.95381 0.04737 -0.74100
O 	O 	0.17187 0.05295 0.98657 -0.41700
O 	O 	0.19003 0.13252 0.01423 -0.39200
Co	Co	0.00858 0.01353 0.52324 1.15900
Co	Co	0.07563 0.91799 0.51758 1.17800
C 	C 	0.18240 0.11300 0.50170 0.32600
O 	O 	0.03112 0.06515 0.66977 -0.38300
C 	C 	0.05416 0.00968 0.69017 0.17800
C 	C 	0.02695 0.20089 0.59366 0.29900
C 	C 	0.19612 0.91106 0.59077 0.31000
O 	O 	0.19918 0.96100 0.55728 -0.35500
O 	O 	0.15074 0.90056 0.60932 -0.36400
O 	O 	0.04941 0.17042 0.58273 -0.38600
O 	O 	0.02546 0.93259 0.54447 -0.74700
O 	O 	0.13045 0.04794 0.48609 -0.41900
O 	O 	0.14732 0.11090 0.52143 -0.41000
C 	C 	0.02054 0.05284 0.90730 -0.03200
C 	C 	0.03630 0.05964 0.87722 -0.12700
C 	C 	0.14219 0.06508 0.74577 -0.06400
C 	C 	0.13030 0.06046 0.77633 -0.06100
H 	H 	0.07056 0.10792 0.92004 0.05700
H 	H 	0.09737 0.12037 0.86666 0.08300
H 	H 	0.19582 0.12813 0.73198 0.06600
H 	H 	0.17628 0.11932 0.78638 0.05800
C 	C 	0.11492 0.03299 0.28238 -0.10800
C 	C 	0.13405 0.03844 0.25369 -0.00000
H 	H 	0.16154 0.08965 0.29394 0.07000
H 	H 	0.19467 0.09971 0.24305 0.05600
H 	H 	0.05756 0.09852 0.36171 0.06000
H 	H 	0.02723 0.08959 0.41315 0.05100
C 	C 	0.14443 0.44662 0.57093 -0.04700
C 	C 	0.16865 0.45725 0.60535 -0.00600
C 	C 	0.15192 0.38404 0.63591 0.07600
C 	C 	0.11808 0.30395 0.63235 -0.01400
C 	C 	0.09321 0.29277 0.59804 -0.07900
C 	C 	0.10741 0.36516 0.56715 0.11500
N 	N 	0.08518 0.35670 0.53193 -0.02600
H 	H 	0.15925 0.50306 0.54739 0.08800
H 	H 	0.10548 0.24820 0.65612 0.05800
N 	N 	0.17265 0.39189 0.67108 -0.02000
O 	O 	0.03126 0.37810 0.50429 -0.08400
O 	O 	0.12605 0.33591 0.52677 -0.08400
O 	O 	0.13909 0.42170 0.67503 -0.07600
O 	O 	0.22149 0.36545 0.69945 -0.09400
O 	O 	0.46430 0.61211 0.57713 -0.08000
C 	C 	0.31677 0.82640 0.59572 -0.05200
C 	C 	0.25751 0.73493 0.61101 -0.00800
C 	C 	0.18458 0.70322 0.62421 0.07800
C 	C 	0.17011 0.76268 0.62085 -0.01100
C 	C 	0.22816 0.85398 0.60458 -0.07600
C 	C 	0.30467 0.88596 0.59364 0.11600
N 	N 	0.37034 0.97931 0.58023 0.02000
H 	H 	0.37411 0.85190 0.58612 0.09500
H 	H 	0.11177 0.73718 0.62975 0.06800
N 	N 	0.12604 0.61136 0.64151 -0.01700
O 	O 	0.41421 0.03369 0.59997 -0.11500
O 	O 	0.38864 0.00961 0.54885 -0.13600
O 	O 	0.15622 0.58029 0.67544 -0.07400
O 	O 	0.04138 0.55935 0.62372 -0.08900
C 	C 	0.14391 0.37278 0.07157 -0.01000
C 	C 	0.12454 0.30404 0.10355 -0.07900
C 	C 	0.13631 0.31903 0.13473 0.11100
C 	C 	0.16301 0.40037 0.13317 -0.04700
C 	C 	0.19064 0.47142 0.10249 -0.01000
C 	C 	0.17602 0.45614 0.07076 0.08700
N 	N 	0.19721 0.52643 0.03807 -0.01700
H 	H 	0.13044 0.36056 0.04691 0.06800
H 	H 	0.17372 0.41164 0.15759 0.07700
N 	N 	0.12549 0.25287 0.16858 -0.02400
O 	O 	0.23991 0.53802 0.01877 -0.07200
O 	O 	0.17240 0.57792 0.02726 -0.06900
O 	O 	0.18660 0.23460 0.18609 -0.09900
O 	O 	0.06029 0.21746 0.18360 -0.11300
N 	N 	0.49246 0.71255 0.06757 -0.01900
O 	O 	0.47779 0.66473 0.05155 -0.07200
C 	C 	0.24306 0.71880 0.13679 -0.05100
C 	C 	0.30212 0.74647 0.11749 -0.01400
C 	C 	0.35259 0.83555 0.09739 0.08300
C 	C 	0.34088 0.89466 0.09566 -0.01600
C 	C 	0.27303 0.86437 0.11104 -0.07200
C 	C 	0.23092 0.77835 0.13476 0.10900
N 	N 	0.18332 0.75418 0.15905 -0.02200
H 	H 	0.20932 0.65227 0.15438 0.07900
H 	H 	0.37839 0.96243 0.07939 0.08500
N 	N 	0.41141 0.86475 0.07681 -0.02000
O 	O 	0.37402 0.83374 0.04879 -0.06500
O 	O 	0.50113 0.92764 0.08420 -0.06700
C 	C 	0.41447 0.21827 0.48872 -0.05100
C 	C 	0.47291 0.23714 0.52275 -0.00900
C 	C 	0.43940 0.23145 0.54680 0.08000
C 	C 	0.34563 0.19989 0.53777 -0.00400
C 	C 	0.28472 0.17343 0.50508 -0.09300
C 	C 	0.32153 0.18950 0.47924 0.11300
N 	N 	0.26501 0.17802 0.44317 -0.02100
H 	H 	0.44191 0.22799 0.46927 0.08000
H 	H 	0.31883 0.19086 0.55725 0.06500
O 	O 	0.22446 0.21831 0.42342 -0.09900
O 	O 	0.25787 0.13086 0.42944 -0.11300
C 	C 	0.45975 0.23062 0.98761 -0.05200
C 	C 	0.51484 0.23766 0.02323 -0.02300
C 	C 	0.47707 0.21625 0.04999 0.07200
C 	C 	0.38422 0.18705 0.04095 -0.00700
C 	C 	0.32750 0.17568 0.00581 -0.10500
C 	C 	0.36664 0.20095 0.97861 0.11800
N 	N 	0.31210 0.19731 0.94176 -0.02300
H 	H 	0.48998 0.25019 0.96669 0.07600
H 	H 	0.35419 0.16725 0.06199 0.05900
O 	O 	0.27200 0.23791 0.92462 -0.09500
O 	O 	0.30638 0.15709 0.92475 -0.10900
C 	C 	0.61409 0.27587 0.03132 0.15000
C 	C 	0.49877 0.69878 0.63855 -0.00800
N 	N 	0.47098 0.67090 0.58281 -0.01800
C 	C 	0.52360 0.70129 0.13219 -0.01300
O 	O 	0.45576 0.75623 0.05025 -0.05200
N 	N 	0.50029 0.25718 0.58052 -0.01800
O 	O 	0.51187 0.31694 0.58774 -0.08500
N 	N 	0.53182 0.22093 0.08675 -0.01800
O 	O 	0.56512 0.17415 0.10535 -0.09300
O 	O 	0.05914 0.00092 0.08388 -0.60900
C 	C 	0.55930 0.72599 0.67105 -0.04800
C 	C 	0.53267 0.70218 0.61537 0.08400
H 	H 	0.53245 0.71976 0.68968 0.08500
O 	O 	0.42565 0.70475 0.55793 -0.07200
H 	H 	0.55562 0.68075 0.19026 0.07900
C 	C 	0.57056 0.26907 0.53187 0.15400
C 	C 	0.55438 0.72212 0.10313 0.08500
O 	O 	0.53962 0.21721 0.60488 -0.08200
N 	N 	0.63894 0.23605 0.02703 -0.13900
C 	C 	0.58184 0.70318 0.16743 -0.05200
O 	O 	0.54286 0.26714 0.10243 -0.08500
O 	O 	0.05785 0.97078 0.67522 -0.33200
C 	C 	0.07668 0.99222 0.73002 0.05800
O 	O 	0.54449 0.95363 0.02273 -0.05000
N 	N 	0.64137 0.34633 0.54203 -0.12600
N 	N 	0.68101 0.35367 0.04115 -0.12700
N 	N 	0.59004 0.22045 0.53101 -0.13100
C 	C 	0.62755 0.73668 0.62414 -0.00400
C 	C 	0.65363 0.75816 0.68031 0.11700
O 	O 	0.56511 0.91369 0.60139 -0.08300
H 	H 	0.61002 0.10982 0.01928 0.07200
C 	C 	0.05464 0.98215 0.79194 0.03000
Co	Co	0.05441 0.88736 0.08846 1.19200
O 	O 	0.22781 0.80125 0.18216 -0.07200
H 	H 	0.57887 0.06966 0.56520 0.07600
N 	N 	0.62916 0.99671 0.02001 -0.00100
H 	H 	0.65413 0.74319 0.60532 0.07300
O 	O 	0.75648 0.74214 0.73703 -0.09000
C 	C 	0.64636 0.75297 0.10903 -0.00600
C 	C 	0.67281 0.73133 0.17345 0.11800
O 	O 	0.64351 0.96830 0.00483 -0.05500
C 	C 	0.02814 0.98344 0.81718 0.03500
C 	C 	0.00528 0.98484 0.83794 -0.04500
H 	H 	0.67211 0.77499 0.08613 0.07700
C 	C 	0.68932 0.76802 0.65578 -0.08400
N 	N 	0.71246 0.77871 0.71503 -0.02200
C 	C 	0.70788 0.76394 0.14352 -0.08800
N 	N 	0.59074 0.94709 0.57141 0.00100
C 	C 	0.68300 0.13505 0.02627 -0.04300
O 	O 	0.05607 0.79462 0.05027 -0.41000
Co	Co	0.01516 0.87291 0.58765 1.18100
C 	C 	0.97730 0.98580 0.86274 0.14800
C 	C 	0.63902 0.09774 0.55667 -0.04200
O 	O 	0.55508 0.89500 0.55203 -0.06500
O 	O 	0.77862 0.48754 0.47792 -0.07900
C 	C 	0.70377 0.08064 0.02957 0.07100
N 	N 	0.72976 0.72684 0.20992 -0.02300
C 	C 	0.73116 0.27304 0.03301 0.14400
C 	C 	0.65550 0.04124 0.55908 0.06300
C 	C 	0.68057 0.24806 0.54131 0.15100
O 	O 	0.73737 0.75716 0.23209 -0.09600
O 	O 	0.76930 0.68755 0.22163 -0.09000
O 	O 	0.98426 0.88880 0.98337 -0.34700
O 	O 	0.71802 0.83023 0.72543 -0.08700
O 	O 	0.03056 0.78979 0.54874 -0.41500
C 	C 	0.80895 0.82870 0.14604 0.32400
C 	C 	0.73167 0.37446 0.55243 0.15200
O 	O 	0.10044 0.67922 0.16140 -0.10100
C 	C 	0.69999 0.19007 0.54359 -0.02100
C 	C 	0.75604 0.22175 0.03185 -0.01800
C 	C 	0.77312 0.39394 0.04568 0.14800
N 	N 	0.75177 0.32527 0.55226 -0.11700
C 	C 	0.79185 0.82480 0.65954 0.31800
N 	N 	0.85481 0.51974 0.50348 -0.01700
O 	O 	0.85793 0.89047 0.16311 -0.37600
O 	O 	0.80922 0.99840 0.09175 -0.31500
O 	O 	0.77220 0.97642 0.59780 -0.32000
C 	C 	0.73594 0.07727 0.54966 -0.06100
O 	O 	0.85581 0.41615 0.14345 -0.07400
N 	N 	0.79892 0.35376 0.04166 -0.11400
O 	O 	0.84672 0.83455 0.12620 -0.38600
C 	C 	0.80700 0.46275 0.55963 -0.00500
C 	C 	0.85474 0.53469 0.53228 0.08000
O 	O 	0.78331 0.55646 0.62191 -0.07600
O 	O 	0.82615 0.81265 0.64527 -0.37200
C 	C 	0.77191 0.02423 0.56378 0.24900
H 	H 	0.79441 0.81395 0.41766 0.05300
H 	H 	0.82348 0.82325 0.36579 0.06800
H 	H 	0.77503 0.42405 0.60977 0.08900
C 	C 	0.79816 0.11170 0.03978 -0.06400
O 	O 	0.80406 0.71204 0.98662 -0.08300
C 	C 	0.81108 0.47925 0.58843 -0.04800
O 	O 	0.84605 0.89560 0.67171 -0.37100
H 	H 	0.91283 0.82238 0.29021 0.08000
C 	C 	0.77608 0.22550 0.53135 0.08600
C 	C 	0.82275 0.04778 0.05871 0.25100
H 	H 	0.94588 0.83288 0.23914 0.06200
C 	C 	0.84172 0.48658 0.04915 -0.00300
H 	H 	0.80915 0.54017 0.99118 0.08600
N 	N 	0.88446 0.43744 0.11627 -0.01800
C 	C 	0.79332 0.16900 0.53424 -0.02500
C 	C 	0.89824 0.62122 0.53204 -0.00200
C 	C 	0.85620 0.56619 0.58863 0.12700
C 	C 	0.84100 0.55313 0.01792 -0.05600
C 	C 	0.88047 0.50318 0.08388 0.08200
O 	O 	0.81833 0.03785 0.54468 -0.36400
H 	H 	0.82232 0.84039 0.91723 0.06600
H 	H 	0.93191 0.67591 0.51006 0.06600
O 	O 	0.93349 0.54768 0.50055 -0.06500
C 	C 	0.85010 0.87696 0.40483 0.01600
C 	C 	0.86731 0.88190 0.37570 -0.05400
C 	C 	0.89776 0.63770 0.55963 -0.08700
N 	N 	0.85973 0.58124 0.61833 -0.02300
N 	N 	0.85505 0.69213 0.98890 -0.02200
H 	H 	0.84820 0.85296 0.86361 0.08100
C 	C 	0.85008 0.25672 0.03635 0.08400
C 	C 	0.86996 0.63169 0.02097 0.11300
C 	C 	0.91376 0.58396 0.08686 -0.00700
H 	H 	0.94523 0.59689 0.11353 0.08100
C 	C 	0.91024 0.64928 0.05553 -0.08000
O 	O 	0.92081 0.40190 0.11927 -0.07100
Co	Co	0.92549 0.02414 0.13552 1.16000
O 	O 	0.86564 0.04613 0.04393 -0.37300
C 	C 	0.86963 0.20235 0.03868 -0.02400
C 	C 	0.97504 0.88269 0.28027 -0.05100
Co	Co	0.89855 0.02084 0.63616 1.15100
N 	N 	0.83604 0.31865 0.51604 -0.01800
C 	C 	0.99434 0.88829 0.25155 0.04800
O 	O 	0.88395 0.71979 0.96061 -0.09300
O 	O 	0.92648 0.75254 0.57408 -0.36100
C 	C 	0.88101 0.90250 0.90570 0.02900
O 	O 	0.81026 0.35297 0.48202 -0.06600
H 	H 	0.85443 0.19724 0.52632 0.07900
C 	C 	0.01068 0.91012 0.74924 -0.07800
O 	O 	0.93696 0.61146 0.64369 -0.07800
C 	C 	0.89625 0.90925 0.87553 -0.07500
C 	C 	0.91199 0.94987 0.42030 -0.02500
O 	O 	0.95146 0.77222 0.06932 -0.37100
C 	C 	0.94511 0.96037 0.36135 0.07700
C 	C 	0.99829 0.90547 0.77971 0.02900
C 	C 	0.92615 0.93289 0.45956 0.29000
O 	O 	0.91724 0.36890 0.53593 -0.06700
C 	C 	0.97569 0.95973 0.33743 0.04200
O 	O 	0.93044 0.98951 0.60840 -0.71900
C 	C 	0.96500 0.94719 0.96382 0.28800
O 	O 	0.97701 0.09008 0.51902 -0.45100
O 	O 	0.95962 0.98319 0.97962 -0.33400
C 	C 	0.99888 0.03674 0.37337 -0.07700
C 	C 	0.98111 0.03187 0.40235 -0.01300
C 	C 	0.94847 0.97106 0.92394 -0.01000
O 	O 	0.93225 0.98382 0.47164 -0.32600
O 	O 	0.04848 0.05350 0.17485 -0.41500
Co	Co	0.94636 0.05187 0.56611 1.17300
O 	O 	0.94699 0.14805 0.60304 -0.39200
C 	C 	0.06021 0.99069 0.19685 0.34200
O 	O 	0.05435 0.94134 0.18397 -0.36600
C 	C 	0.06916 0.96902 0.23600 -0.06500
C 	C 	0.00152 0.95851 0.31776 -0.03700
C 	C 	0.03233 0.95697 0.29424 0.09200
O 	O 	0.98540 0.15650 0.10915 -0.37900
Co	Co	0.98887 0.92454 0.13033 1.21500
C 	C 	0.97404 0.74264 0.05792 0.33600
O 	O 	0.98130 0.01129 0.11032 -0.76900
O 	O 	0.01506 0.84436 0.13399 -0.44500
Co	Co	0.95457 0.91291 0.63113 1.19100
C 	C 	0.95195 0.73087 0.55989 0.33500
O 	O 	0.98733 0.83703 0.63523 -0.42900
O 	O 	0.94912 0.94120 0.57267 -0.55000
O 	O 	0.94558 0.87539 0.48222 -0.37000
H 	H 	0.94146 0.84372 0.79237 0.06000
H 	H 	0.96200 0.85231 0.73824 0.09300
N 	N 	0.92560 0.34665 0.03845 -0.02000
H 	H 	0.94078 0.23028 0.04051 0.06500
O 	O 	0.96932 0.36623 0.06991 -0.07400
O 	O 	0.95450 0.40804 0.00929 -0.07400
