data_crystal

_cell_length_a 25.44835
_cell_length_b 21.66450
_cell_length_c 50.86560
_cell_angle_alpha 90.52851
_cell_angle_beta  91.15098
_cell_angle_gamma 110.59600

_symmetry_space_group_name_	'P 1'
_symmetry_space_group_name_H-M	'P 1'

loop_
_symmetry_equiv_pos_as_xyz
  x,y,z

loop_
_atom_site_label
_atom_site_type_symbol
_atom_site_fract_x
_atom_site_fract_y
_atom_site_fract_z
_atom_site_charge
Ni	Ni	0.01911 0.95571 0.75408 1.09600
O 	O 	0.03190 0.90022 0.72411 -0.70900
Ni	Ni	0.06374 0.96885 0.69703 1.09700
O 	O 	0.09765 0.96904 0.77051 -0.36500
O 	O 	0.09187 0.08928 0.77907 -0.40500
O 	O 	0.07764 0.90637 0.66998 -0.37300
O 	O 	0.04359 0.02435 0.72571 -0.69400
O 	O 	0.10971 0.04648 0.67456 -0.36200
Ni	Ni	0.10831 0.09809 0.73986 1.06800
H 	H 	0.05832 0.87760 0.72896 0.15500
H 	H 	0.01285 0.04016 0.72064 0.15800
C 	C 	0.03778 0.84863 0.66530 0.28400
C 	C 	0.04060 0.07181 0.78805 0.28400
O 	O 	0.05600 0.08821 0.20517 -0.36700
O 	O 	0.04806 0.17505 0.24742 -0.36400
O 	O 	0.01081 0.13181 0.28640 -0.41200
C 	C 	0.04471 0.06510 0.18073 0.27100
C 	C 	0.04726 0.17892 0.27320 0.27400
O 	O 	0.00141 0.07087 0.16734 -0.39500
C 	C 	0.08753 0.35152 0.11813 -0.00800
C 	C 	0.03794 0.29682 0.11572 -0.03000
C 	C 	0.00641 0.33469 0.15567 0.03100
C 	C 	0.05522 0.39116 0.15723 -0.06500
C 	C 	0.09538 0.39955 0.13785 0.02600
H 	H 	0.03200 0.26081 0.09997 0.04300
H 	H 	0.06192 0.42684 0.17316 0.05100
C 	C 	0.11024 0.95705 0.14138 0.00500
C 	C 	0.09942 0.89489 0.12976 -0.06000
S 	S 	0.06755 0.99946 0.13860 -0.00900
C 	C 	0.08486 0.04245 0.16692 -0.06600
C 	C 	0.12514 0.02250 0.18009 -0.02500
H 	H 	0.07470 0.88077 0.11165 0.04500
H 	H 	0.13641 0.03353 0.20070 0.04500
C 	C 	0.16316 0.39889 0.35237 -0.00000
C 	C 	0.12776 0.33315 0.34863 -0.05600
C 	C 	0.10946 0.31131 0.32293 0.01500
C 	C 	0.08734 0.23616 0.28728 -0.07600
C 	C 	0.08822 0.24426 0.31475 -0.03200
S 	S 	0.16796 0.44231 0.37998 0.02300
H 	H 	0.11554 0.30010 0.36508 0.04500
H 	H 	0.07338 0.20363 0.32821 0.04000
C 	C 	0.06156 0.96258 0.31265 -0.00400
C 	C 	0.10389 0.96230 0.33055 -0.05300
C 	C 	0.12715 0.91293 0.32760 0.01300
C 	C 	0.10568 0.86308 0.30825 0.00000
C 	C 	0.05786 0.85820 0.29296 -0.05800
C 	C 	0.03716 0.91021 0.29468 0.02200
C 	C 	0.15917 0.89652 0.34762 -0.02500
H 	H 	0.17887 0.92886 0.36414 0.04400
C 	C 	0.04968 0.56979 0.48384 -0.01400
C 	C 	0.03210 0.59951 0.50482 -0.01700
C 	C 	0.09684 0.60748 0.46865 0.05300
C 	C 	0.13685 0.63658 0.45575 -0.10800
H 	H 	0.05348 0.65134 0.50953 0.03900
C 	C 	0.00240 0.53100 0.00005 0.02600
C 	C 	0.05490 0.56145 0.01424 0.03800
C 	C 	0.09958 0.58504 0.02570 -0.09900
O 	O 	0.13652 0.13422 0.70302 -0.40300
C 	C 	0.14522 0.99038 0.75758 0.27000
C 	C 	0.12299 0.85233 0.14169 0.01400
H 	H 	0.11610 0.99694 0.34701 0.04500
C 	C 	0.04869 0.79969 0.64842 -0.07700
O 	O 	0.15510 0.03909 0.74091 -0.42200
H 	H 	0.12094 0.78892 0.10737 0.04400
C 	C 	0.13433 0.80178 0.12768 -0.01900
C 	C 	0.12355 0.35508 0.30202 -0.00500
S 	S 	0.03104 0.79367 0.61645 0.03600
H 	H 	0.14384 0.50573 0.14330 0.04700
C 	C 	0.13754 0.46077 0.13213 -0.02100
C 	C 	0.13937 0.97441 0.16566 0.01300
S 	S 	0.11205 0.31150 0.27412 0.02200
H 	H 	0.03598 0.81425 0.28126 0.04700
C 	C 	0.15415 0.87085 0.16536 0.00600
C 	C 	0.16426 0.93262 0.17724 -0.06000
C 	C 	0.14896 0.09941 0.68442 0.28600
O 	O 	0.15749 0.63049 0.06362 -0.37300
C 	C 	0.15365 0.60997 0.03871 0.31000
C 	C 	0.17534 0.78211 0.14019 -0.06400
H 	H 	0.18884 0.94664 0.19539 0.04300
O 	O 	0.17867 0.68564 0.41608 -0.37200
C 	C 	0.18536 0.66752 0.44044 0.31500
O 	O 	0.19056 0.69738 0.11469 -0.36700
S 	S 	0.13014 0.38492 0.09378 0.02800
C 	C 	0.16240 0.45949 0.10779 -0.07600
S 	S 	0.19710 0.82842 0.16757 -0.01300
C 	C 	0.15934 0.42061 0.30551 -0.05300
C 	C 	0.17688 0.44315 0.33130 0.01400
C 	C 	0.18778 0.51709 0.36664 -0.07400
S 	S 	0.12443 0.79954 0.31679 0.00900
C 	C 	0.16067 0.83289 0.34438 -0.06700
S 	S 	0.20431 0.95573 0.79729 0.03200
C 	C 	0.19190 0.96919 0.76583 -0.07500
C 	C 	0.02732 0.11280 0.80804 -0.07100
O 	O 	0.18959 0.75133 0.36549 -0.36300
Ni	Ni	0.24258 0.72412 0.38987 1.10000
O 	O 	0.21990 0.63519 0.37007 -0.38600
O 	O 	0.23468 0.66941 0.44976 -0.42200
O 	O 	0.21699 0.57682 0.40730 -0.39800
C 	C 	0.20434 0.81153 0.35619 0.26900
C 	C 	0.21306 0.57905 0.38166 0.29900
Ni	Ni	0.23101 0.66505 0.08620 1.10000
O 	O 	0.18951 0.51437 0.06688 -0.39600
C 	C 	0.19144 0.51876 0.09265 0.30300
C 	C 	0.21227 0.75707 0.12528 0.26900
O 	O 	0.21110 0.57642 0.10481 -0.39200
O 	O 	0.19753 0.60666 0.02616 -0.42100
C 	C 	0.19203 0.51009 0.33945 -0.02100
H 	H 	0.17046 0.45373 0.28905 0.04400
H 	H 	0.20279 0.55091 0.32600 0.04000
S 	S 	0.22148 0.09370 0.64527 0.03000
C 	C 	0.19751 0.13241 0.66811 -0.07200
C 	C 	0.23952 0.19334 0.67426 -0.02200
H 	H 	0.23820 0.22384 0.69105 0.03800
C 	C 	0.24369 0.98964 0.75315 -0.03000
H 	H 	0.24953 0.01206 0.73396 0.04300
C 	C 	0.03755 0.73513 0.65722 -0.02900
H 	H 	0.03609 0.47916 0.46205 0.04000
H 	H 	0.02640 0.59591 0.96692 0.05300
C 	C 	0.02230 0.50255 0.47809 -0.01600
O 	O 	0.25285 0.85685 0.36351 -0.40800
Ni	Ni	0.25222 0.56892 0.04278 1.07200
O 	O 	0.25886 0.80016 0.11609 -0.40500
C 	C 	0.28764 0.20524 0.65872 0.01700
C 	C 	0.28298 0.15325 0.64096 -0.00100
C 	C 	0.27303 0.97162 0.79581 -0.00300
C 	C 	0.28931 0.99122 0.77003 0.01400
H 	H 	0.03529 0.72344 0.67793 0.02000
H 	H 	0.02353 0.19090 0.78203 0.02000
Ni	Ni	0.28537 0.63467 0.42884 1.07200
O 	O 	0.28664 0.65301 0.06130 -0.70200
H 	H 	0.29483 0.68821 0.04813 0.15600
C 	C 	0.31064 0.99470 0.81721 -0.05700
H 	H 	0.29576 0.98948 0.83717 0.04800
H 	H 	0.29462 0.73012 0.34622 0.15500
O 	O 	0.30493 0.75519 0.36307 -0.70600
Ni	Ni	0.33126 0.84928 0.35683 1.06400
O 	O 	0.30879 0.71810 0.41037 -0.70000
H 	H 	0.32035 0.75405 0.42375 0.15600
O 	O 	0.30964 0.53146 0.05925 -0.42200
O 	O 	0.30280 0.69266 0.10920 -0.70500
H 	H 	0.29765 0.66823 0.12587 0.15700
C 	C 	0.34044 0.25293 0.66496 -0.05700
C 	C 	0.33070 0.14327 0.63154 -0.05400
H 	H 	0.34544 0.29004 0.68017 0.04500
H 	H 	0.32762 0.09748 0.62172 0.04700
C 	C 	0.34544 0.02913 0.76497 -0.05500
O 	O 	0.35076 0.87612 0.39548 -0.41400
O 	O 	0.33820 0.60082 0.40727 -0.42400
Ni	Ni	0.33640 0.78697 0.11597 1.06500
O 	O 	0.34055 0.81086 0.07727 -0.41600
C 	C 	0.36713 0.03002 0.81200 0.01800
H 	H 	0.35743 0.05007 0.74578 0.04400
Ni	Ni	0.36676 0.73514 0.38147 1.10100
Ni	Ni	0.35440 0.66750 0.08611 1.10100
C 	C 	0.36295 0.55856 0.05371 0.29900
C 	C 	0.38459 0.04378 0.78596 0.00400
C 	C 	0.01474 0.68600 0.63728 0.02300
C 	C 	0.00975 0.71232 0.61256 0.00200
C 	C 	0.37721 0.80009 0.06186 0.30700
C 	C 	0.38680 0.24891 0.65164 0.00400
C 	C 	0.38287 0.19289 0.63662 0.01600
H 	H 	0.37689 0.96247 0.99874 0.04100
S 	S 	0.01541 0.99927 0.31792 0.02600
C 	C 	0.01253 0.16710 0.80081 -0.01700
C 	C 	0.39325 0.86735 0.40781 0.30700
C 	C 	0.39267 0.63100 0.40975 0.29800
O 	O 	0.39181 0.61840 0.06248 -0.37500
O 	O 	0.39776 0.75362 0.06713 -0.37300
H 	H 	0.43181 0.91668 0.49916 0.03800
H 	H 	0.44584 0.45954 0.44644 0.04000
C 	C 	0.40073 0.84504 0.04111 -0.10900
C 	C 	0.38485 0.53082 0.03283 -0.12600
H 	H 	0.38611 0.38098 0.00451 0.03900
C 	C 	0.40541 0.07161 0.83086 -0.02000
H 	H 	0.39893 0.06837 0.85186 0.04900
C 	C 	0.40225 0.50832 0.01466 0.04500
O 	O 	0.41569 0.69118 0.40094 -0.37300
O 	O 	0.41417 0.82371 0.39920 -0.37200
O 	O 	0.41334 0.86151 0.34883 -0.40400
O 	O 	0.41990 0.79595 0.11727 -0.40400
O 	O 	0.41960 0.68975 0.11246 -0.38000
C 	C 	0.42035 0.90980 0.42959 -0.11000
C 	C 	0.42357 0.60592 0.42796 -0.12500
C 	C 	0.41823 0.96683 0.99210 -0.03600
C 	C 	0.42138 0.88301 0.02383 0.04500
H 	H 	0.42051 0.04013 0.96345 0.04200
C 	C 	0.41025 0.41430 0.98981 -0.03500
H 	H 	0.42121 0.33658 0.96649 0.04000
O 	O 	0.42107 0.75876 0.35142 -0.37700
C 	C 	0.43164 0.81546 0.33925 0.27600
C 	C 	0.46100 0.96584 0.49546 -0.03700
H 	H 	0.47894 0.99030 0.53655 0.03800
C 	C 	0.46711 0.49027 0.46313 -0.03500
H 	H 	0.48365 0.41118 0.48275 0.03900
C 	C 	0.43506 0.18456 0.63341 -0.01800
C 	C 	0.42238 0.48236 0.99250 -0.01000
C 	C 	0.42977 0.38915 0.96820 -0.03500
S 	S 	0.44521 0.10740 0.78680 -0.00800
C 	C 	0.44112 0.74952 0.12319 0.27900
C 	C 	0.44360 0.94539 0.44786 0.04600
C 	C 	0.44710 0.58392 0.44415 0.04400
S 	S 	0.45367 0.28626 0.66089 0.01400
H 	H 	0.44029 0.14612 0.62113 0.04800
C 	C 	0.44678 0.92842 0.00333 -0.00600
C 	C 	0.44296 0.01089 0.97217 -0.03300
C 	C 	0.45134 0.11917 0.81939 -0.06100
C 	C 	0.48806 0.46276 0.48379 -0.03500
C 	C 	0.45309 0.52504 0.97326 -0.03500
C 	C 	0.48779 0.00744 0.51661 -0.02800
C 	C 	0.46140 0.43197 0.94920 -0.01000
H 	H 	0.46218 0.57768 0.97512 0.03800
C 	C 	0.47164 0.98791 0.46962 -0.00600
C 	C 	0.47305 0.55708 0.46421 -0.00900
C 	C 	0.48001 0.23436 0.64602 -0.07300
C 	C 	0.47259 0.49990 0.95165 -0.03600
C 	C 	0.47799 0.83539 0.32068 -0.07700
H 	H 	0.48228 0.93675 0.31356 0.03500
C 	C 	0.48722 0.40711 0.92882 0.04500
C 	C 	0.49636 0.01673 0.96341 -0.00500
C 	C 	0.50452 0.15376 0.83348 0.27300
H 	H 	0.49126 0.72616 0.17141 0.03100
C 	C 	0.50030 0.93454 0.99467 -0.03400
H 	H 	0.49727 0.53331 0.93711 0.03800
C 	C 	0.49962 0.77153 0.13259 -0.07100
C 	C 	0.50213 0.90020 0.31159 -0.02400
C 	C 	0.50006 0.59626 0.48600 -0.03500
O 	O 	0.51350 0.21457 0.84203 -0.37700
H 	H 	0.50438 0.64781 0.48707 0.03800
C 	C 	0.51053 0.38644 0.91242 -0.12900
O 	O 	0.52126 0.29890 0.88765 -0.37400
C 	C 	0.52534 0.07124 0.51200 -0.00700
C 	C 	0.51486 0.50191 0.50563 -0.00800
C 	C 	0.52088 0.06017 0.94220 0.04500
C 	C 	0.51778 0.74643 0.15491 -0.02400
C 	C 	0.52097 0.56875 0.50666 -0.03500
H 	H 	0.52267 0.90511 0.00332 0.04100
C 	C 	0.52503 0.97859 0.97475 -0.03600
O 	O 	0.53156 0.11752 0.84452 -0.40300
C 	C 	0.50962 0.05147 0.46500 -0.03300
O 	O 	0.53663 0.17389 0.89257 -0.37300
C 	C 	0.53668 0.25593 0.63547 0.28200
S 	S 	0.52795 0.80171 0.32083 0.03300
C 	C 	0.54054 0.36193 0.89402 0.30000
C 	C 	0.54092 0.09597 0.92421 -0.11000
C 	C 	0.53968 0.47482 0.52607 0.04500
H 	H 	0.54210 0.59946 0.52338 0.04000
C 	C 	0.55039 0.11533 0.53378 0.04700
S 	S 	0.55325 0.79725 0.11209 0.03400
C 	C 	0.53641 0.09307 0.48615 -0.03300
H 	H 	0.51818 0.06877 0.44506 0.04100
O 	O 	0.55787 0.20960 0.62967 -0.40700
O 	O 	0.55545 0.31389 0.62405 -0.38200
C 	C 	0.56391 0.13769 0.90246 0.30700
C 	C 	0.55941 0.91675 0.30512 0.01600
C 	C 	0.56234 0.45340 0.54284 -0.12100
C 	C 	0.57056 0.15258 0.55202 -0.11000
O 	O 	0.56884 0.37134 0.57218 -0.37300
O 	O 	0.57084 0.24167 0.57947 -0.37400
H 	H 	0.56628 0.98276 0.96803 0.04000
O 	O 	0.00429 0.01270 0.78280 -0.37600
Ni	Ni	0.57301 0.25665 0.87039 1.10100
C 	C 	0.57516 0.75247 0.15397 0.01800
C 	C 	0.57966 0.86489 0.30900 -0.00300
H 	H 	0.58205 0.02207 0.29963 0.04300
H 	H 	0.58981 0.74045 0.19547 0.04500
O 	O 	0.59315 0.39729 0.88964 -0.42400
C 	C 	0.59233 0.42992 0.56210 0.29800
C 	C 	0.59334 0.19730 0.57373 0.30400
H 	H 	0.56531 0.14239 0.48245 0.03700
C 	C 	0.59696 0.98194 0.30362 -0.05600
C 	C 	0.60040 0.77889 0.13029 -0.00200
C 	C 	0.99856 0.28660 0.13568 -0.01500
Ni	Ni	0.99211 0.09702 0.22642 1.09500
O 	O 	0.98777 0.16581 0.19963 -0.37200
C 	C 	0.98284 0.90578 0.28551 -0.03300
H 	H 	0.95826 0.86955 0.27106 0.04300
C 	C 	0.96368 0.22247 0.14315 -0.00800
H 	H 	0.96128 0.17863 0.13200 0.03000
S 	S 	0.97310 0.29633 0.18182 0.00000
S 	S 	0.98823 0.07836 0.83370 0.02400
H 	H 	0.96709 0.45765 0.02951 0.04500
H 	H 	0.97226 0.58585 0.53552 0.04300
C 	C 	0.96126 0.47520 0.01018 -0.05600
C 	C 	0.98643 0.56234 0.51964 -0.05000
C 	C 	0.94624 0.21954 0.16930 -0.07700
Ni	Ni	0.70195 0.28846 0.87766 1.09900
O 	O 	0.63578 0.23965 0.85276 -0.70600
O 	O 	0.75543 0.26109 0.85453 -0.36500
O 	O 	0.70054 0.15206 0.85753 -0.40900
O 	O 	0.71175 0.36810 0.85416 -0.39000
Ni	Ni	0.61714 0.14484 0.85103 1.06400
O 	O 	0.71576 0.36529 0.93488 -0.42100
O 	O 	0.60754 0.13266 0.89066 -0.41600
O 	O 	0.63666 0.29244 0.89797 -0.70100
O 	O 	0.76861 0.34420 0.90166 -0.37500
Ni	Ni	0.65600 0.38181 0.91212 1.07100
H 	H 	0.64059 0.25820 0.83488 0.15600
H 	H 	0.63111 0.26219 0.91294 0.15600
O 	O 	0.71773 0.43904 0.88850 -0.40000
C 	C 	0.74417 0.19876 0.84772 0.27100
C 	C 	0.72110 0.42807 0.86330 0.30300
C 	C 	0.76434 0.36660 0.92565 0.31100
Ni	Ni	0.61502 0.33263 0.59628 1.10000
O 	O 	0.67796 0.34515 0.57019 -0.70000
Ni	Ni	0.73882 0.33398 0.59335 1.09800
O 	O 	0.64580 0.46278 0.56653 -0.41800
Ni	Ni	0.70551 0.42839 0.55141 1.07100
O 	O 	0.76464 0.49470 0.57570 -0.39600
O 	O 	0.80511 0.35959 0.56797 -0.38000
O 	O 	0.67309 0.31396 0.61857 -0.70300
O 	O 	0.78694 0.30791 0.62097 -0.36600
O 	O 	0.71878 0.20770 0.62768 -0.40700
Ni	Ni	0.64142 0.22076 0.62757 1.06400
H 	H 	0.66689 0.30928 0.55678 0.15200
H 	H 	0.68261 0.34256 0.63455 0.15600
C 	C 	0.79282 0.47925 0.59488 0.29900
O 	O 	0.63112 0.18798 0.58950 -0.41500
C 	C 	0.80927 0.39816 0.54745 0.30900
C 	C 	0.76655 0.25402 0.63490 0.27500
O 	O 	0.76856 0.42735 0.60919 -0.39100
O 	O 	0.76434 0.39933 0.53443 -0.42300
O 	O 	0.98618 0.87399 0.77704 -0.36800
O 	O 	0.92063 0.82093 0.74539 -0.41200
Ni	Ni	0.96062 0.83832 0.70952 1.06300
O 	O 	0.92431 0.90781 0.70290 -0.40800
C 	C 	0.94510 0.95576 0.68627 0.28100
C 	C 	0.94714 0.81994 0.76776 0.27600
O 	O 	0.99347 0.96471 0.67541 -0.37100
O 	O 	0.98542 0.83916 0.67159 -0.40800
Ni	Ni	0.86806 0.00752 0.23674 1.09800
O 	O 	0.93376 0.01286 0.21350 -0.70900
O 	O 	0.81940 0.92070 0.21858 -0.36700
O 	O 	0.83284 0.96929 0.17826 -0.41100
O 	O 	0.90103 0.95537 0.26153 -0.38200
Ni	Ni	0.91921 0.02094 0.17628 1.06200
O 	O 	0.84227 0.10058 0.28248 -0.42000
O 	O 	0.90280 0.10625 0.18077 -0.41500
O 	O 	0.92217 0.09969 0.24505 -0.70100
O 	O 	0.80391 0.99792 0.26221 -0.37300
Ni	Ni	0.92554 0.11542 0.28311 1.06600
H 	H 	0.94698 0.97550 0.21629 0.15500
H 	H 	0.90762 0.13147 0.23650 0.15300
C 	C 	0.94324 0.16286 0.18542 0.29100
O 	O 	0.90885 0.02276 0.29689 -0.40200
C 	C 	0.81048 0.91683 0.19290 0.27200
C 	C 	0.92458 0.97953 0.28434 0.28800
C 	C 	0.80350 0.04100 0.28082 0.29600
C 	C 	0.65845 0.81145 0.12895 -0.05400
C 	C 	0.69197 0.80924 0.15086 0.01500
C 	C 	0.66705 0.77832 0.17399 -0.00300
C 	C 	0.60853 0.75386 0.17645 -0.05500
S 	S 	0.71259 0.80935 0.19882 0.03000
C 	C 	0.76575 0.85884 0.18144 -0.07700
C 	C 	0.74757 0.85437 0.15503 -0.02500
H 	H 	0.67652 0.84100 0.11210 0.04400
H 	H 	0.76998 0.88886 0.14029 0.03500
C 	C 	0.65403 0.99407 0.30871 0.00300
C 	C 	0.63660 0.87717 0.31434 -0.05100
C 	C 	0.67404 0.94242 0.31340 0.01600
S 	S 	0.70634 0.05684 0.29680 0.01400
C 	C 	0.75642 0.02341 0.29873 -0.07600
C 	C 	0.73172 0.95909 0.30805 -0.01700
H 	H 	0.65152 0.83706 0.31838 0.04800
H 	H 	0.75179 0.92259 0.30674 0.04900
C 	C 	0.96434 0.95330 0.29722 -0.08200
C 	C 	0.95834 0.49536 0.51353 0.00400
C 	C 	0.97673 0.46543 0.49290 -0.05000
C 	C 	0.90714 0.45944 0.52637 0.04300
C 	C 	0.86307 0.43035 0.53639 -0.10800
H 	H 	0.95503 0.41376 0.48800 0.04400
C 	C 	0.86311 0.07696 0.69193 -0.00300
C 	C 	0.81861 0.10076 0.69097 -0.05600
C 	C 	0.82857 0.16307 0.68008 0.01400
C 	C 	0.88084 0.19805 0.66917 -0.00500
C 	C 	0.92168 0.16900 0.66632 -0.05600
C 	C 	0.91278 0.10843 0.67846 0.01200
S 	S 	0.85600 0.99809 0.69512 0.01100
C 	C 	0.91500 0.00094 0.68027 -0.07300
C 	C 	0.94233 0.06595 0.67212 -0.03200
S 	S 	0.87181 0.25319 0.64876 0.03000
C 	C 	0.80374 0.23803 0.65397 -0.07800
C 	C 	0.78507 0.18541 0.67146 -0.02500
H 	H 	0.77711 0.07062 0.69719 0.04200
H 	H 	0.95735 0.19076 0.65388 0.04500
H 	H 	0.98236 0.08226 0.66248 0.04700
H 	H 	0.74105 0.15857 0.67486 0.02500
C 	C 	0.94322 0.58334 0.62370 0.00000
C 	C 	0.98108 0.62096 0.64309 -0.06600
C 	C 	0.96755 0.67710 0.59437 -0.06200
C 	C 	0.93417 0.61215 0.60013 0.01500
S 	S 	0.88399 0.52144 0.63028 0.02400
C 	C 	0.84600 0.52910 0.60420 -0.07500
C 	C 	0.87971 0.58060 0.58889 -0.02100
H 	H 	0.98065 0.60246 0.66283 0.04100
H 	H 	0.95743 0.70158 0.57756 0.04500
H 	H 	0.86484 0.59694 0.57111 0.04100
C 	C 	0.99465 0.55303 0.97494 -0.06500
C 	C 	0.94642 0.51881 0.95987 -0.02000
C 	C 	0.90576 0.46234 0.96981 -0.01500
C 	C 	0.91301 0.44097 0.99510 -0.02400
C 	C 	0.85620 0.42705 0.95423 0.04900
C 	C 	0.81449 0.39854 0.94115 -0.10700
H 	H 	0.94089 0.53590 0.94041 0.03700
H 	H 	0.88155 0.39764 0.00299 0.03600
C 	C 	0.87921 0.18621 0.81620 -0.00100
C 	C 	0.93433 0.20831 0.80748 -0.05300
C 	C 	0.96988 0.17552 0.81653 0.00500
C 	C 	0.95224 0.12849 0.83656 0.00100
C 	C 	0.89707 0.10776 0.84556 -0.05600
C 	C 	0.86069 0.13729 0.83502 0.01600
S 	S 	0.83434 0.22637 0.81420 0.01400
C 	C 	0.78798 0.17975 0.83549 -0.07600
C 	C 	0.80900 0.13320 0.84603 -0.02300
H 	H 	0.94774 0.24577 0.79261 0.04000
H 	H 	0.88265 0.06875 0.85975 0.04600
H 	H 	0.79160 0.10376 0.86298 0.04200
C 	C 	0.81695 0.55581 0.81502 0.00000
C 	C 	0.83724 0.58939 0.79185 -0.05700
C 	C 	0.85781 0.65857 0.79300 0.01600
C 	C 	0.85369 0.69227 0.81609 -0.00300
C 	C 	0.83317 0.65870 0.83922 -0.05400
C 	C 	0.81244 0.58956 0.83805 0.01400
S 	S 	0.77205 0.47866 0.81651 0.02200
C 	C 	0.74628 0.48468 0.84615 -0.07700
C 	C 	0.77326 0.54942 0.85577 -0.01700
S 	S 	0.89911 0.76909 0.81468 0.02900
C 	C 	0.92443 0.76325 0.78495 -0.07700
C 	C 	0.89681 0.69877 0.77521 -0.02400
H 	H 	0.83898 0.56283 0.77394 0.04200
H 	H 	0.83147 0.68525 0.85714 0.04500
H 	H 	0.76483 0.56690 0.87468 0.04200
H 	H 	0.90441 0.68169 0.75607 0.02100
