data_crystal

_cell_length_a 26.10279
_cell_length_b 27.09646
_cell_length_c 43.53422
_cell_angle_alpha 60.85277
_cell_angle_beta  118.86232
_cell_angle_gamma 133.24061

_symmetry_space_group_name_	'P 1'
_symmetry_space_group_name_H-M	'P 1'

loop_
_symmetry_equiv_pos_as_xyz
  x,y,z

loop_
_atom_site_label
_atom_site_type_symbol
_atom_site_fract_x
_atom_site_fract_y
_atom_site_fract_z
_atom_site_charge
C 	C 	0.72108 0.30703 0.01015 -0.01800
C 	C 	0.77005 0.37261 0.01835 -0.02400
C 	C 	0.74538 0.39796 0.02532 -0.02000
C 	C 	0.67222 0.35745 0.02472 -0.02100
C 	C 	0.62310 0.29245 0.01631 -0.02000
C 	C 	0.64701 0.26880 0.00747 -0.03200
H 	H 	0.82711 0.40315 0.01996 0.05300
H 	H 	0.65380 0.37615 0.03128 0.05700
H 	H 	0.60803 0.22059 0.99880 0.03600
C 	C 	0.73376 0.31221 0.51095 -0.01800
C 	C 	0.78395 0.38225 0.51374 -0.02800
C 	C 	0.76327 0.41201 0.52003 -0.01700
C 	C 	0.69318 0.37228 0.52379 -0.02500
C 	C 	0.64353 0.30223 0.52203 -0.02000
C 	C 	0.66339 0.27280 0.51487 -0.01900
H 	H 	0.83903 0.41287 0.51196 0.04100
H 	H 	0.67850 0.39513 0.52977 0.04600
H 	H 	0.62464 0.21877 0.51321 0.05900
C 	C 	0.29432 0.65121 0.19694 -0.01400
C 	C 	0.24648 0.58615 0.18815 -0.02400
C 	C 	0.27165 0.56473 0.17854 -0.01600
C 	C 	0.34463 0.60763 0.17804 -0.02200
C 	C 	0.39195 0.67306 0.18565 -0.01600
C 	C 	0.36702 0.69462 0.19533 -0.02300
H 	H 	0.18980 0.55300 0.18788 0.04700
H 	H 	0.36422 0.59067 0.17100 0.05200
H 	H 	0.40423 0.74503 0.20165 0.05900
C 	C 	0.28872 0.63965 0.70001 -0.01500
C 	C 	0.24656 0.57291 0.69424 -0.02500
C 	C 	0.27328 0.55812 0.68110 -0.01500
C 	C 	0.34408 0.60783 0.67631 -0.02700
C 	C 	0.38758 0.67302 0.68359 -0.01500
C 	C 	0.35941 0.68958 0.69452 -0.01900
H 	H 	0.19338 0.53260 0.69986 0.04700
H 	H 	0.36546 0.59569 0.66710 0.04400
H 	H 	0.39282 0.74077 0.69927 0.06400
Co	Co	0.07286 0.01429 0.07306 1.16000
Co	Co	0.92903 0.92975 0.13728 1.19500
Co	Co	0.01379 0.06849 0.09192 1.18600
Co	Co	0.98796 0.87528 0.11808 1.17500
C 	C 	0.21690 0.03685 0.09155 0.20100
Co	Co	0.08284 0.89902 0.07677 1.17400
Co	Co	0.91726 0.04901 0.12834 1.15000
C 	C 	0.92343 0.78936 0.06719 0.26000
O 	O 	0.93948 0.12889 0.08148 -0.39800
O 	O 	0.96169 0.01431 0.12175 -0.80500
C 	C 	0.92091 0.11616 0.05095 0.27300
O 	O 	0.07431 0.09658 0.06236 -0.47800
O 	O 	0.92245 0.84564 0.14526 -0.46600
C 	C 	0.78849 0.91469 0.10811 0.26100
O 	O 	0.02405 0.97956 0.11698 -0.53700
C 	C 	0.07762 0.16133 0.14069 0.26300
C 	C 	0.05178 0.98899 0.00769 0.28900
C 	C 	0.07877 0.82159 0.15444 0.26900
O 	O 	0.93503 0.07856 0.05026 -0.40100
O 	O 	0.10015 0.97630 0.02853 -0.37400
O 	O 	0.02293 0.99599 0.02180 -0.36100
O 	O 	0.81737 0.98162 0.09951 -0.33500
O 	O 	0.82298 0.89418 0.10890 -0.37400
O 	O 	0.02203 0.11203 0.15617 -0.38300
O 	O 	0.08195 0.15538 0.11345 -0.35700
O 	O 	0.06514 0.81652 0.12248 -0.38000
O 	O 	0.04681 0.83818 0.15959 -0.35600
O 	O 	0.05062 0.93349 0.09328 -0.74000
C 	C 	0.92981 0.95115 0.19941 0.31900
O 	O 	0.88816 0.97072 0.17522 -0.38900
O 	O 	0.94927 0.92660 0.19062 -0.37800
O 	O 	0.18467 0.96874 0.10328 -0.32400
O 	O 	0.18344 0.06484 0.08255 -0.37600
O 	O 	0.97688 0.83388 0.05074 -0.38200
O 	O 	0.91048 0.81153 0.08203 -0.38400
Co	Co	0.07130 0.00957 0.57317 1.16000
Co	Co	0.93235 0.92666 0.63993 1.19600
Co	Co	0.01119 0.06323 0.59153 1.18700
Co	Co	0.99055 0.87203 0.62055 1.17600
C 	C 	0.21287 0.03189 0.58761 0.20200
Co	Co	0.07951 0.89254 0.57711 1.17400
Co	Co	0.91585 0.04406 0.62864 1.14900
C 	C 	0.92184 0.78166 0.57128 0.26500
O 	O 	0.93361 0.12050 0.58042 -0.39400
O 	O 	0.96141 0.01013 0.62238 -0.80700
C 	C 	0.91323 0.10495 0.55048 0.27200
O 	O 	0.07197 0.09162 0.56200 -0.47300
O 	O 	0.92907 0.84357 0.64978 -0.46100
C 	C 	0.78898 0.90607 0.61196 0.26400
O 	O 	0.02535 0.97671 0.61788 -0.53800
C 	C 	0.07705 0.15715 0.63993 0.26200
C 	C 	0.04449 0.97979 0.50782 0.28100
C 	C 	0.07968 0.81658 0.65576 0.27100
O 	O 	0.92964 0.06889 0.55015 -0.40200
O 	O 	0.09329 0.96753 0.52801 -0.37200
O 	O 	0.01810 0.98876 0.52238 -0.35800
O 	O 	0.81580 0.97276 0.60178 -0.36100
O 	O 	0.82458 0.88618 0.61338 -0.36700
O 	O 	0.02086 0.11088 0.65497 -0.38200
O 	O 	0.07623 0.15232 0.61060 -0.35300
O 	O 	0.06469 0.81147 0.62353 -0.37300
O 	O 	0.05415 0.83960 0.66103 -0.35600
O 	O 	0.04961 0.92889 0.59385 -0.74000
C 	C 	0.93484 0.95197 0.70106 0.32000
O 	O 	0.89087 0.96869 0.67681 -0.38700
O 	O 	0.95598 0.92844 0.69270 -0.37500
O 	O 	0.18244 0.96433 0.60153 -0.33400
O 	O 	0.18157 0.06022 0.58138 -0.36000
O 	O 	0.97252 0.82603 0.55307 -0.39400
O 	O 	0.91017 0.80410 0.58666 -0.38100
C 	C 	0.03221 0.99742 0.96849 -0.00400
C 	C 	0.96296 0.94666 0.95214 -0.00700
C 	C 	0.95009 0.94220 0.91806 -0.09600
C 	C 	0.00640 0.98866 0.90006 0.13400
C 	C 	0.07430 0.04214 0.91544 -0.12400
C 	C 	0.08703 0.04660 0.94940 -0.03300
C 	C 	0.99524 0.97989 0.86579 -0.01700
C 	C 	0.00847 0.03533 0.83465 -0.04300
C 	C 	0.00125 0.02830 0.80273 -0.07200
C 	C 	0.98033 0.96571 0.80154 0.03700
C 	C 	0.96705 0.91019 0.83257 -0.04600
C 	C 	0.97472 0.91729 0.86464 -0.01700
C 	C 	0.96655 0.95686 0.76755 0.04300
C 	C 	0.95339 0.95256 0.73790 -0.09000
H 	H 	0.92027 0.90823 0.96666 0.05000
H 	H 	0.89704 0.90152 0.90616 0.06400
H 	H 	0.11798 0.07872 0.90167 0.05800
H 	H 	0.14067 0.08606 0.96174 0.03700
H 	H 	0.02426 0.08381 0.83516 0.03700
H 	H 	0.01101 0.07126 0.77878 0.04500
H 	H 	0.95032 0.86144 0.83182 0.05000
H 	H 	0.96512 0.87439 0.88859 0.03800
C 	C 	0.02281 0.98704 0.46866 0.02200
C 	C 	0.07541 0.03951 0.44823 -0.06500
C 	C 	0.06253 0.03531 0.41416 -0.05900
C 	C 	0.99666 0.97872 0.40004 0.02400
C 	C 	0.94223 0.92853 0.41945 -0.03400
C 	C 	0.95526 0.93276 0.45362 -0.04000
C 	C 	0.98575 0.97103 0.36549 0.05700
C 	C 	0.97140 0.91141 0.36442 -0.04700
C 	C 	0.96411 0.90565 0.33200 -0.03200
C 	C 	0.97161 0.95958 0.30056 0.03700
C 	C 	0.98622 0.01915 0.30165 -0.06600
C 	C 	0.99304 0.02479 0.33390 -0.10300
C 	C 	0.95908 0.95210 0.26642 0.04500
C 	C 	0.94700 0.94935 0.23656 -0.09200
H 	H 	0.12780 0.08157 0.45960 0.04900
H 	H 	0.10469 0.07472 0.39930 0.04400
H 	H 	0.89067 0.88531 0.40854 0.04500
H 	H 	0.91437 0.89173 0.46921 0.05000
H 	H 	0.96636 0.86986 0.38869 0.04700
H 	H 	0.95231 0.85921 0.33136 0.04700
H 	H 	0.99151 0.06081 0.27739 0.03400
H 	H 	0.00399 0.07093 0.33435 0.06100
C 	C 	0.18105 0.38449 0.68077 0.11200
C 	C 	0.17448 0.32179 0.69849 -0.08500
C 	C 	0.18164 0.29617 0.68053 0.00800
C 	C 	0.19243 0.33014 0.64585 0.12000
C 	C 	0.20024 0.39353 0.62848 -0.09400
C 	C 	0.19066 0.41769 0.64599 0.03000
O 	O 	0.20252 0.42770 0.69943 -0.21400
C 	C 	0.22710 0.49025 0.67258 0.12400
C 	C 	0.22010 0.48474 0.64065 -0.10500
O 	O 	0.16716 0.28633 0.62639 -0.18200
C 	C 	0.13658 0.22240 0.65181 0.04400
C 	C 	0.14639 0.22807 0.68441 -0.05900
H 	H 	0.16527 0.29445 0.72554 0.06400
H 	H 	0.20917 0.42086 0.60138 0.07400
H 	H 	0.25176 0.52776 0.62083 0.06700
H 	H 	0.11225 0.18617 0.70338 0.05400
C 	C 	0.54344 0.79738 0.64932 0.11600
C 	C 	0.56993 0.83422 0.61808 -0.08300
C 	C 	0.61138 0.82215 0.61487 0.01200
C 	C 	0.62910 0.77803 0.64231 0.12200
C 	C 	0.60233 0.74105 0.67350 -0.09400
C 	C 	0.56192 0.75403 0.67694 0.02900
O 	O 	0.48072 0.78218 0.64941 -0.20700
C 	C 	0.46237 0.72444 0.67918 0.12600
C 	C 	0.51076 0.70767 0.69587 -0.10400
O 	O 	0.69237 0.79372 0.64263 -0.19000
C 	C 	0.71280 0.85335 0.61391 0.04900
C 	C 	0.66421 0.86999 0.59690 -0.05300
H 	H 	0.55690 0.86948 0.59653 0.07600
H 	H 	0.61538 0.70581 0.69508 0.07200
H 	H 	0.49744 0.65621 0.71200 0.06500
H 	H 	0.67785 0.92178 0.58144 0.06600
C 	C 	0.12607 0.70110 0.71379 0.12200
C 	C 	0.12029 0.64445 0.71550 -0.09100
C 	C 	0.18419 0.65177 0.72440 0.02800
C 	C 	0.25089 0.71546 0.72661 0.11700
C 	C 	0.25618 0.77368 0.72203 -0.08400
C 	C 	0.19319 0.76375 0.71822 0.01500
O 	O 	0.06954 0.70759 0.69467 -0.17900
C 	C 	0.10894 0.78005 0.68711 0.05200
C 	C 	0.18255 0.81387 0.70109 -0.05700
O 	O 	0.30280 0.72234 0.71998 -0.21100
C 	C 	0.26046 0.65735 0.71277 0.12600
C 	C 	0.18951 0.61509 0.71514 -0.10300
H 	H 	0.06796 0.59828 0.70758 0.07400
H 	H 	0.30642 0.82557 0.71903 0.07600
H 	H 	0.22287 0.86793 0.69001 0.06300
H 	H 	0.14421 0.57432 0.70091 0.06400
C 	C 	0.17301 0.39048 0.17747 0.11300
C 	C 	0.16524 0.32721 0.19579 -0.08500
C 	C 	0.17461 0.30133 0.17921 0.00800
C 	C 	0.18773 0.33499 0.14503 0.12000
C 	C 	0.19608 0.39860 0.12689 -0.09400
C 	C 	0.18528 0.42366 0.14319 0.03000
O 	O 	0.19396 0.43421 0.19559 -0.21200
C 	C 	0.22150 0.49708 0.16916 0.12500
C 	C 	0.21623 0.49119 0.13781 -0.10500
O 	O 	0.16493 0.29102 0.12646 -0.18500
C 	C 	0.13387 0.22735 0.15198 0.04300
C 	C 	0.14045 0.23325 0.18371 -0.05800
H 	H 	0.15417 0.30002 0.22246 0.06600
H 	H 	0.20703 0.42580 0.10020 0.07300
H 	H 	0.25037 0.53375 0.11893 0.06600
H 	H 	0.10510 0.19136 0.20213 0.05500
C 	C 	0.61502 0.83229 0.11295 0.12200
C 	C 	0.57558 0.84161 0.12016 -0.09300
C 	C 	0.55085 0.80034 0.15211 0.03100
C 	C 	0.55878 0.74748 0.17441 0.11400
C 	C 	0.59752 0.73751 0.16710 -0.08500
C 	C 	0.62382 0.77986 0.13551 0.01100
O 	O 	0.66788 0.88682 0.09344 -0.17600
C 	C 	0.71118 0.86400 0.10756 0.05100
C 	C 	0.68468 0.79978 0.13222 -0.05700
O 	O 	0.50730 0.69430 0.19487 -0.21200
C 	C 	0.46707 0.71995 0.18226 0.12600
C 	C 	0.49278 0.78318 0.15683 -0.10400
H 	H 	0.56790 0.88224 0.10246 0.07700
H 	H 	0.60531 0.69698 0.18490 0.06900
H 	H 	0.71801 0.78275 0.15319 0.05500
H 	H 	0.45987 0.80121 0.13672 0.06900
C 	C 	0.14343 0.72151 0.21504 0.12100
C 	C 	0.13914 0.66356 0.22014 -0.09000
C 	C 	0.20277 0.67409 0.22458 0.02800
C 	C 	0.26559 0.74046 0.21881 0.11900
C 	C 	0.26866 0.79876 0.21154 -0.08500
C 	C 	0.20811 0.78735 0.21245 0.01800
O 	O 	0.08298 0.72196 0.19898 -0.18300
C 	C 	0.11716 0.79401 0.18580 0.05200
C 	C 	0.19156 0.83321 0.19389 -0.05900
O 	O 	0.31114 0.74516 0.20793 -0.21200
C 	C 	0.26910 0.67561 0.20700 0.12600
C 	C 	0.20466 0.63276 0.21716 -0.10200
H 	H 	0.08722 0.61330 0.21793 0.07400
H 	H 	0.31443 0.85106 0.20281 0.07900
H 	H 	0.22557 0.88522 0.17815 0.06900
H 	H 	0.15770 0.58310 0.21064 0.06500
C 	C 	0.85411 0.20675 0.49326 0.11900
C 	C 	0.87077 0.26827 0.49344 -0.09500
C 	C 	0.82505 0.26147 0.50567 0.02500
C 	C 	0.76140 0.19891 0.51301 0.11100
C 	C 	0.74126 0.13808 0.51015 -0.08900
C 	C 	0.78907 0.14314 0.50026 0.00400
O 	O 	0.90842 0.20060 0.50185 -0.18900
C 	C 	0.87295 0.12890 0.51778 0.03600
C 	C 	0.80068 0.09403 0.51482 -0.05900
O 	O 	0.71359 0.20438 0.51452 -0.22000
C 	C 	0.75548 0.27746 0.50702 0.12200
C 	C 	0.82224 0.31208 0.50139 -0.10600
H 	H 	0.92131 0.31831 0.48800 0.06800
H 	H 	0.69169 0.08804 0.51686 0.05700
H 	H 	0.76942 0.04404 0.53268 0.04200
H 	H 	0.85422 0.36588 0.48663 0.06100
C 	C 	0.84401 0.61441 0.57203 0.12200
C 	C 	0.86322 0.57014 0.58246 -0.09700
C 	C 	0.86155 0.55491 0.55529 0.02500
C 	C 	0.83667 0.57821 0.51925 0.11100
C 	C 	0.81731 0.62233 0.50880 -0.08500
C 	C 	0.81948 0.63806 0.53594 0.00700
O 	O 	0.87292 0.65662 0.59351 -0.19300
C 	C 	0.86748 0.71011 0.56672 0.04300
C 	C 	0.83399 0.69837 0.53246 -0.05100
O 	O 	0.80836 0.53629 0.49778 -0.21400
C 	C 	0.81564 0.48380 0.52451 0.12200
C 	C 	0.84868 0.49542 0.55878 -0.10600
H 	H 	0.88182 0.55068 0.61078 0.06800
H 	H 	0.79885 0.64188 0.48047 0.06600
H 	H 	0.84207 0.73949 0.50767 0.05500
H 	H 	0.84099 0.45428 0.58353 0.06100
C 	C 	0.49277 0.17822 0.56149 0.11100
C 	C 	0.43367 0.11078 0.57304 -0.08900
C 	C 	0.36900 0.10111 0.56542 0.00800
C 	C 	0.36414 0.15634 0.54926 0.11700
C 	C 	0.42311 0.22371 0.53758 -0.09600
C 	C 	0.48780 0.23342 0.54521 0.02900
O 	O 	0.54749 0.19033 0.55436 -0.21800
C 	C 	0.57370 0.25757 0.53158 0.12500
C 	C 	0.53835 0.28343 0.52601 -0.10900
O 	O 	0.30986 0.14442 0.55671 -0.19100
C 	C 	0.28376 0.07724 0.57953 0.05300
C 	C 	0.31851 0.05111 0.58468 -0.07500
H 	H 	0.43720 0.06713 0.58629 0.05900
H 	H 	0.41959 0.26736 0.52434 0.07100
H 	H 	0.53921 0.32650 0.50406 0.06500
H 	H 	0.31700 0.00739 0.60624 0.04400
C 	C 	0.82056 0.26523 0.00649 0.11200
C 	C 	0.87079 0.27565 0.99588 -0.08700
C 	C 	0.85707 0.21666 0.99422 0.00600
C 	C 	0.79514 0.15025 0.00226 0.11900
C 	C 	0.74343 0.14121 0.01097 -0.09700
C 	C 	0.76048 0.19935 0.01524 0.02300
O 	O 	0.81719 0.31849 0.00044 -0.21600
C 	C 	0.74788 0.27716 0.00605 0.12100
C 	C 	0.71389 0.20598 0.01476 -0.10700
O 	O 	0.80392 0.09766 0.01587 -0.19400
C 	C 	0.87812 0.13817 0.01898 0.03600
C 	C 	0.90909 0.20883 0.00428 -0.05400
H 	H 	0.91984 0.32732 0.99021 0.06500
H 	H 	0.69506 0.08957 0.01759 0.06300
H 	H 	0.65781 0.16448 0.01596 0.05500
H 	H 	0.96629 0.24931 0.01206 0.05200
C 	C 	0.83459 0.53761 0.06086 0.11200
C 	C 	0.83400 0.55998 0.08369 -0.08700
C 	C 	0.82563 0.61396 0.06820 0.01200
C 	C 	0.82172 0.64686 0.03189 0.11900
C 	C 	0.82169 0.62396 0.00907 -0.09300
C 	C 	0.83146 0.57099 0.02469 0.02500
O 	O 	0.81348 0.47038 0.06902 -0.21500
C 	C 	0.79625 0.46621 0.03413 0.12300
C 	C 	0.80682 0.52600 0.00757 -0.10400
O 	O 	0.84495 0.71483 0.02378 -0.18700
C 	C 	0.86594 0.72083 0.05876 0.04700
C 	C 	0.85367 0.66054 0.08534 -0.06100
H 	H 	0.83792 0.53495 0.11233 0.06700
H 	H 	0.81796 0.64905 0.98045 0.06800
H 	H 	0.77824 0.52699 0.97938 0.06400
H 	H 	0.88367 0.65964 0.11335 0.05300
C 	C 	0.38778 0.11421 0.08430 0.11700
C 	C 	0.42472 0.10858 0.07259 -0.09900
C 	C 	0.45608 0.16039 0.04318 0.02300
C 	C 	0.45629 0.21856 0.02787 0.11300
C 	C 	0.41969 0.22450 0.03963 -0.08900
C 	C 	0.38732 0.17215 0.06873 0.01000
O 	O 	0.33048 0.05576 0.10049 -0.21100
C 	C 	0.29406 0.08320 0.09198 0.05500
C 	C 	0.32790 0.15269 0.07334 -0.06500
O 	O 	0.51289 0.27651 0.01107 -0.21600
C 	C 	0.54726 0.24771 0.01835 0.12300
C 	C 	0.51365 0.17852 0.03742 -0.10800
H 	H 	0.42597 0.06364 0.08485 0.05900
H 	H 	0.41837 0.26940 0.02729 0.06800
H 	H 	0.30048 0.17742 0.05584 0.06000
H 	H 	0.54077 0.15338 0.05426 0.05700
