data_crystal

_cell_length_a 15.73109
_cell_length_b 16.02114
_cell_length_c 23.42562
_cell_angle_alpha 95.39591
_cell_angle_beta  95.39705
_cell_angle_gamma 126.69528

_symmetry_space_group_name_	'P 1'
_symmetry_space_group_name_H-M	'P 1'

loop_
_symmetry_equiv_pos_as_xyz
  x,y,z

loop_
_atom_site_label
_atom_site_type_symbol
_atom_site_fract_x
_atom_site_fract_y
_atom_site_fract_z
_atom_site_charge
C 	C 	0.09688 0.04509 0.49799 0.00700
C 	C 	0.00299 0.06163 0.94853 -0.04800
C 	C 	0.05989 0.02067 0.95462 0.00700
H 	H 	0.04636 0.14550 0.94815 0.05100
C 	C 	0.05465 0.10195 0.50384 -0.04700
H 	H 	0.10692 0.18719 0.50682 0.04600
C 	C 	0.17445 0.08892 0.96003 0.05200
C 	C 	0.94351 0.04668 0.50531 0.00000
Cu	Cu	0.75789 0.33843 0.93444 0.92400
Cu	Cu	0.75414 0.25003 0.05617 0.86200
Cu	Cu	0.59998 0.29015 0.01728 0.89100
Cu	Cu	0.55860 0.33924 0.90158 0.90000
C 	C 	0.66991 0.31197 0.81462 0.28200
C 	C 	0.67885 0.31213 0.14275 0.27900
O 	O 	0.59173 0.25676 0.93455 -0.62800
O 	O 	0.75497 0.35340 0.01897 -0.65100
O 	O 	0.81844 0.25472 0.93270 -0.35600
O 	O 	0.70479 0.14561 0.98929 -0.42900
O 	O 	0.63366 0.36290 0.83414 -0.38000
O 	O 	0.44677 0.21949 0.01073 -0.40300
C 	C 	0.38367 0.21176 0.96576 0.33600
O 	O 	0.42234 0.27908 0.92972 -0.39700
O 	O 	0.73249 0.30225 0.85034 -0.35300
C 	C 	0.76934 0.16448 0.95258 0.29400
O 	O 	0.60656 0.30326 0.10315 -0.37400
O 	O 	0.76238 0.32086 0.12860 -0.42100
H 	H 	0.54203 0.18006 0.91761 0.16500
Cu	Cu	0.61557 0.19762 0.51885 0.92400
Cu	Cu	0.70776 0.20316 0.39797 0.86900
Cu	Cu	0.66485 0.35372 0.43671 0.89700
C 	C 	0.63976 0.28207 0.63848 0.28200
O 	O 	0.45444 0.13173 0.51541 -0.35500
C 	C 	0.64819 0.28063 0.31156 0.27800
O 	O 	0.69756 0.36085 0.51931 -0.63600
O 	O 	0.60137 0.20147 0.43435 -0.63900
O 	O 	0.69472 0.13367 0.52053 -0.36500
O 	O 	0.80997 0.24582 0.46576 -0.44200
O 	O 	0.58684 0.31651 0.61873 -0.37900
C 	C 	0.41305 0.17604 0.49329 0.29600
O 	O 	0.47756 0.27137 0.48221 -0.39700
O 	O 	0.65120 0.22172 0.60292 -0.35200
C 	C 	0.78630 0.17929 0.50108 0.30200
O 	O 	0.65238 0.34852 0.35105 -0.37100
O 	O 	0.63904 0.19816 0.32513 -0.41900
H 	H 	0.52688 0.15157 0.41150 0.17400
C 	C 	0.66617 0.29467 0.75277 -0.03900
C 	C 	0.65733 0.28592 0.70036 -0.03900
C 	C 	0.66322 0.30620 0.20218 -0.05100
C 	C 	0.65414 0.29686 0.25227 -0.04900
C 	C 	0.84637 0.13754 0.50622 -0.11400
C 	C 	0.89480 0.10039 0.50707 0.03800
C 	C 	0.30248 0.13277 0.49521 -0.10300
C 	C 	0.20998 0.09743 0.49677 0.03800
C 	C 	0.83730 0.04574 0.94359 0.03400
C 	C 	0.80482 0.09861 0.94548 -0.10200
C 	C 	0.27039 0.14503 0.96360 -0.11200
Cu	Cu	0.60975 0.38946 0.55099 0.89800
C 	C 	0.89099 0.99607 0.94442 0.00900
C 	C 	0.00591 0.91328 0.95476 -0.04900
H 	H 	0.05142 0.88261 0.95885 0.05100
H 	H 	0.06077 0.89155 0.48831 0.04800
C 	C 	0.89417 0.84496 0.95013 0.01000
C 	C 	0.83505 0.88610 0.94545 -0.05300
H 	H 	0.74842 0.83434 0.94301 0.04900
C 	C 	0.02857 0.93526 0.49301 -0.04600
C 	C 	0.91934 0.88121 0.49427 0.00200
C 	C 	0.87685 0.93645 0.50087 -0.04800
H 	H 	0.79160 0.89353 0.50179 0.04800
O 	O 	0.82139 0.49766 0.93706 -0.34500
C 	C 	0.77293 0.53621 0.95777 0.29100
O 	O 	0.67688 0.47108 0.96968 -0.38800
H 	H 	0.80541 0.42694 0.04133 0.17000
O 	O 	0.73578 0.50411 0.44400 -0.38300
C 	C 	0.73584 0.56395 0.48685 0.31300
O 	O 	0.66750 0.52315 0.52294 -0.39600
H 	H 	0.77533 0.41077 0.53695 0.16400
C 	C 	0.85167 0.76882 0.49032 0.04600
C 	C 	0.79806 0.67489 0.48790 -0.10900
C 	C 	0.81215 0.64380 0.95394 -0.09400
C 	C 	0.84323 0.73354 0.95161 0.03500
