data_crystal

_cell_length_a 26.41706
_cell_length_b 25.95297
_cell_length_c 32.54252
_cell_angle_alpha 95.50354
_cell_angle_beta  95.50034
_cell_angle_gamma 125.82158

_symmetry_space_group_name_	'P 1'
_symmetry_space_group_name_H-M	'P 1'

loop_
_symmetry_equiv_pos_as_xyz
  x,y,z

loop_
_atom_site_label
_atom_site_type_symbol
_atom_site_fract_x
_atom_site_fract_y
_atom_site_fract_z
_atom_site_charge
C 	C 	0.95887 0.00804 0.00387 -0.05500
C 	C 	0.92198 0.94028 0.99450 0.11400
C 	C 	0.95131 0.90986 0.98942 -0.00500
C 	C 	0.01732 0.94728 0.99213 0.12300
C 	C 	0.05436 0.01495 0.00147 -0.03700
C 	C 	0.02498 0.04533 0.00668 0.07200
H 	H 	0.87071 0.91140 0.99121 0.11500
H 	H 	0.03981 0.92377 0.98706 0.11300
H 	H 	0.05341 0.09771 0.01290 0.10800
C 	C 	0.94491 0.01958 0.44742 -0.04400
C 	C 	0.91448 0.95748 0.45703 0.10100
C 	C 	0.94757 0.93076 0.46139 0.00100
C 	C 	0.01024 0.96539 0.45458 0.11500
C 	C 	0.04221 0.02926 0.44832 -0.02400
C 	C 	0.00932 0.05613 0.44443 0.06900
H 	H 	0.86570 0.93056 0.46170 0.10100
H 	H 	0.03528 0.94404 0.45654 0.13100
H 	H 	0.03414 0.10587 0.44017 0.12000
Cu	Cu	0.62727 0.22074 0.00683 0.94000
Cu	Cu	0.65389 0.18297 0.91606 0.90600
Cu	Cu	0.65237 0.29680 0.93561 0.91800
Cu	Cu	0.63476 0.34692 0.01568 0.91200
C 	C 	0.66702 0.30200 0.08727 0.26900
O 	O 	0.53787 0.19022 0.01153 -0.30500
C 	C 	0.60751 0.21846 0.85022 0.27400
O 	O 	0.67832 0.31587 0.99527 -0.62400
O 	O 	0.60689 0.20563 0.94482 -0.63000
O 	O 	0.66344 0.17189 0.01172 -0.32800
O 	O 	0.72216 0.21409 0.96103 -0.35000
O 	O 	0.63525 0.32287 0.07207 -0.34100
O 	O 	0.70186 0.38709 0.93072 -0.31100
C 	C 	0.70343 0.43215 0.95483 0.30300
C 	C 	0.51092 0.21209 0.99100 0.30500
O 	O 	0.54623 0.26554 0.97635 -0.32600
O 	O 	0.66613 0.41797 0.98284 -0.30200
O 	O 	0.66059 0.25182 0.06601 -0.30900
C 	C 	0.71203 0.18665 0.99419 0.32500
O 	O 	0.64005 0.27675 0.87399 -0.32800
O 	O 	0.60467 0.17083 0.86400 -0.34300
H 	H 	0.72496 0.34477 0.00524 0.20600
H 	H 	0.56099 0.17772 0.93255 0.24400
Cu	Cu	0.72211 0.34725 0.44781 0.93600
Cu	Cu	0.73817 0.29230 0.53079 0.92800
Cu	Cu	0.63777 0.32717 0.51197 0.93300
Cu	Cu	0.62324 0.37947 0.43734 0.92400
C 	C 	0.66841 0.34763 0.36667 0.26600
O 	O 	0.77638 0.44553 0.45610 -0.32000
C 	C 	0.65922 0.28918 0.58555 0.26100
O 	O 	0.62875 0.31411 0.45194 -0.63000
O 	O 	0.72476 0.35196 0.50939 -0.61800
O 	O 	0.74324 0.28505 0.43532 -0.29400
O 	O 	0.80145 0.30951 0.50000 -0.34300
O 	O 	0.65934 0.38821 0.38536 -0.32900
O 	O 	0.55148 0.29705 0.51216 -0.30700
C 	C 	0.51813 0.30451 0.48382 0.29900
C 	C 	0.76197 0.47870 0.47873 0.28900
O 	O 	0.70416 0.44935 0.48657 -0.30200
O 	O 	0.54603 0.35092 0.46159 -0.28600
O 	O 	0.70283 0.33341 0.38747 -0.31100
C 	C 	0.78496 0.28390 0.46000 0.30100
O 	O 	0.64799 0.32796 0.57163 -0.29900
O 	O 	0.66652 0.25338 0.55918 -0.34600
H 	H 	0.59331 0.26960 0.43732 0.20100
H 	H 	0.75800 0.39608 0.52557 0.21600
C 	C 	0.58909 0.19531 0.73973 0.11000
C 	C 	0.62111 0.19162 0.70887 -0.06600
C 	C 	0.65275 0.24314 0.68735 0.04000
C 	C 	0.64887 0.29430 0.69397 0.11800
C 	C 	0.61511 0.29710 0.72369 -0.06900
C 	C 	0.58556 0.24689 0.74661 0.05500
N 	N 	0.58705 0.17240 0.77540 -0.14700
C 	C 	0.58382 0.20971 0.80539 0.05700
C 	C 	0.58220 0.25613 0.78852 -0.02800
N 	N 	0.65593 0.32046 0.65925 -0.14800
C 	C 	0.66425 0.28609 0.63050 0.04600
C 	C 	0.66239 0.23748 0.64669 -0.03600
H 	H 	0.62370 0.15147 0.70324 0.10100
H 	H 	0.61256 0.33730 0.72918 0.12200
H 	H 	0.59790 0.30196 0.80662 0.11900
H 	H 	0.64919 0.19316 0.62787 0.09900
H 	H 	0.60572 0.14726 0.78171 0.13200
H 	H 	0.63871 0.34656 0.65191 0.15900
C 	C 	0.70609 0.36588 0.19580 0.11700
C 	C 	0.68225 0.38555 0.22518 -0.06900
C 	C 	0.65401 0.34735 0.25527 0.04600
C 	C 	0.65429 0.29452 0.25841 0.10800
C 	C 	0.67919 0.27534 0.22968 -0.06600
C 	C 	0.70459 0.31165 0.19809 0.04000
N 	N 	0.70281 0.37415 0.15575 -0.14900
C 	C 	0.69726 0.32476 0.13204 0.04900
C 	C 	0.69863 0.28509 0.15732 -0.02200
N 	N 	0.65409 0.28474 0.29831 -0.14900
C 	C 	0.65322 0.33093 0.32052 0.04600
C 	C 	0.65323 0.37079 0.29492 -0.03200
H 	H 	0.68313 0.42754 0.22344 0.11100
H 	H 	0.67833 0.23340 0.23158 0.10200
H 	H 	0.67680 0.23431 0.14662 0.09700
H 	H 	0.67118 0.42038 0.30595 0.10700
H 	H 	0.68721 0.39990 0.14439 0.13400
H 	H 	0.67095 0.26093 0.31126 0.14300
C 	C 	0.92604 0.80018 0.51745 0.06800
C 	C 	0.87613 0.74460 0.48893 0.08200
C 	C 	0.84062 0.74997 0.45648 -0.06700
C 	C 	0.86451 0.81159 0.44773 0.03500
C 	C 	0.91741 0.86741 0.47458 0.11300
C 	C 	0.94398 0.86151 0.51222 -0.10200
C 	C 	0.86127 0.68109 0.49341 0.10400
C 	C 	0.77675 0.69073 0.43226 0.78300
H 	H 	0.84264 0.81624 0.41984 0.14000
C 	C 	0.99222 0.92004 0.54637 0.77800
H 	H 	0.95104 0.79563 0.54357 0.12900
C 	C 	0.87999 0.65135 0.46662 -0.09700
C 	C 	0.84970 0.58459 0.46338 0.08600
C 	C 	0.80789 0.55009 0.49043 0.01300
C 	C 	0.80341 0.58482 0.52448 -0.05600
C 	C 	0.82618 0.64895 0.52380 0.04300
C 	C 	0.93228 0.69050 0.44206 0.79100
H 	H 	0.85652 0.55911 0.43883 0.10600
C 	C 	0.77475 0.55440 0.56143 0.78000
H 	H 	0.81585 0.67349 0.54645 0.13300
F 	F 	0.05270 0.94817 0.53816 -0.36600
F 	F 	0.98996 0.90200 0.58523 -0.36200
F 	F 	0.98006 0.96527 0.54877 -0.39200
F 	F 	0.73910 0.65489 0.45991 -0.39700
F 	F 	0.78524 0.65256 0.40578 -0.38200
F 	F 	0.74451 0.70788 0.40823 -0.37200
F 	F 	0.80340 0.60096 0.59780 -0.37800
F 	F 	0.78349 0.50804 0.56816 -0.43400
F 	F 	0.71047 0.52630 0.55394 -0.38500
F 	F 	0.95329 0.65624 0.42596 -0.38100
F 	F 	0.98371 0.74679 0.46802 -0.38900
F 	F 	0.91022 0.70634 0.40902 -0.37100
C 	C 	0.86320 0.08838 0.40309 0.05800
C 	C 	0.86473 0.12231 0.43999 0.08000
C 	C 	0.88503 0.11554 0.47970 -0.07300
C 	C 	0.90925 0.07971 0.48140 0.02000
C 	C 	0.91111 0.04887 0.44443 0.10500
C 	C 	0.88486 0.05026 0.40491 -0.10000
C 	C 	0.84206 0.16244 0.43672 0.10000
C 	C 	0.87830 0.14399 0.52006 0.78100
H 	H 	0.92768 0.07644 0.51146 0.11900
C 	C 	0.88195 0.01304 0.36466 0.75000
H 	H 	0.84571 0.09238 0.37297 0.12700
C 	C 	0.88457 0.22906 0.43534 -0.09600
C 	C 	0.86392 0.26799 0.44084 0.08500
C 	C 	0.80112 0.24071 0.44529 0.00700
C 	C 	0.75669 0.17269 0.44127 -0.06400
C 	C 	0.77785 0.13417 0.43676 0.03700
C 	C 	0.95157 0.25843 0.42795 0.79000
H 	H 	0.89706 0.31986 0.44299 0.10600
C 	C 	0.68706 0.14134 0.44229 0.78200
H 	H 	0.74509 0.08241 0.43518 0.12400
F 	F 	0.84457 0.01091 0.33067 -0.37800
F 	F 	0.85622 0.94998 0.36869 -0.34600
F 	F 	0.94253 0.04254 0.35632 -0.36500
F 	F 	0.81471 0.11492 0.52030 -0.41000
F 	F 	0.91009 0.20989 0.52308 -0.38500
F 	F 	0.90309 0.13425 0.55536 -0.38700
F 	F 	0.65186 0.07483 0.43842 -0.39500
F 	F 	0.66132 0.15411 0.40937 -0.42100
F 	F 	0.68136 0.16547 0.47992 -0.46600
F 	F 	0.98417 0.32308 0.42523 -0.38300
F 	F 	0.94907 0.22587 0.39068 -0.39600
F 	F 	0.98541 0.25377 0.46061 -0.37700
C 	C 	0.20906 0.12731 0.42464 0.06200
C 	C 	0.24547 0.14880 0.46520 0.07900
C 	C 	0.21512 0.13304 0.50045 -0.06400
C 	C 	0.14852 0.09544 0.49403 0.02600
C 	C 	0.11205 0.07109 0.45333 0.10900
C 	C 	0.14230 0.08605 0.41809 -0.09300
C 	C 	0.31551 0.18821 0.47040 0.10600
C 	C 	0.25362 0.15910 0.54496 0.78200
H 	H 	0.12463 0.08469 0.52070 0.13700
C 	C 	0.10368 0.06022 0.37372 0.75200
H 	H 	0.23303 0.14204 0.39815 0.13000
C 	C 	0.34622 0.15879 0.46420 -0.09900
C 	C 	0.41274 0.19820 0.46862 0.08000
C 	C 	0.44884 0.26551 0.48087 0.00700
C 	C 	0.41829 0.29450 0.48940 -0.04500
C 	C 	0.35156 0.25570 0.48139 0.03400
C 	C 	0.30808 0.08594 0.45028 0.78900
H 	H 	0.43669 0.17672 0.46195 0.09000
C 	C 	0.45624 0.36665 0.50602 0.77800
H 	H 	0.32740 0.27778 0.48449 0.13900
F 	F 	0.14139 0.07174 0.34387 -0.36100
F 	F 	0.07503 0.09011 0.36704 -0.36100
F 	F 	0.05739 0.99407 0.36789 -0.31800
F 	F 	0.28388 0.22497 0.55489 -0.38400
F 	F 	0.29863 0.14757 0.54854 -0.37600
F 	F 	0.21541 0.13006 0.57411 -0.36600
F 	F 	0.41930 0.38135 0.52340 -0.36000
F 	F 	0.47805 0.39995 0.47346 -0.38100
F 	F 	0.50742 0.38761 0.53705 -0.37500
F 	F 	0.34676 0.06621 0.45275 -0.39000
F 	F 	0.27704 0.06805 0.40906 -0.39700
F 	F 	0.26375 0.05370 0.47547 -0.37800
C 	C 	0.74771 0.59278 0.93424 0.03500
C 	C 	0.81341 0.63277 0.94971 0.10700
C 	C 	0.84440 0.60478 0.96057 -0.10000
C 	C 	0.80758 0.53781 0.95996 0.08000
C 	C 	0.74151 0.49851 0.94657 0.00800
C 	C 	0.71199 0.52531 0.93024 -0.05100
C 	C 	0.84770 0.70379 0.95917 0.08700
C 	C 	0.91568 0.64663 0.97674 0.79600
H 	H 	0.82989 0.51664 0.97185 0.09900
C 	C 	0.64185 0.48269 0.91067 0.77800
H 	H 	0.72420 0.61450 0.92644 0.14100
C 	C 	0.86748 0.74113 0.92707 -0.06600
C 	C 	0.89875 0.80822 0.93756 0.02400
C 	C 	0.91271 0.83857 0.97937 0.11800
C 	C 	0.89290 0.80119 0.01142 -0.10000
C 	C 	0.85868 0.73373 0.00059 0.05500
C 	C 	0.85200 0.70926 0.88139 0.78200
H 	H 	0.91288 0.83726 0.91326 0.12400
C 	C 	0.90467 0.83249 0.05665 0.79100
H 	H 	0.84075 0.70414 0.02442 0.12600
F 	F 	0.62762 0.51403 0.88520 -0.36700
F 	F 	0.60619 0.46714 0.94205 -0.38800
F 	F 	0.62484 0.42639 0.88608 -0.40600
F 	F 	0.92903 0.67504 0.01831 -0.39600
F 	F 	0.94787 0.69449 0.95338 -0.37000
F 	F 	0.93830 0.61014 0.97419 -0.37500
F 	F 	0.89025 0.78967 0.08378 -0.35800
F 	F 	0.86696 0.85292 0.05965 -0.36100
F 	F 	0.96782 0.88496 0.06976 -0.34200
F 	F 	0.88553 0.75455 0.85660 -0.36900
F 	F 	0.78780 0.67588 0.86604 -0.38400
F 	F 	0.86745 0.66670 0.87770 -0.36900
C 	C 	0.88618 0.08580 0.04909 0.05200
C 	C 	0.86044 0.09292 0.01228 0.07300
C 	C 	0.87199 0.07760 0.97294 -0.07100
C 	C 	0.90480 0.05028 0.97106 0.02900
C 	C 	0.92760 0.03995 0.00764 0.09300
C 	C 	0.91941 0.05891 0.04725 -0.09200
C 	C 	0.82234 0.11767 0.01537 0.08700
C 	C 	0.85213 0.09322 0.93341 0.78100
H 	H 	0.91274 0.03686 0.94113 0.10600
C 	C 	0.94733 0.05193 0.08749 0.73600
H 	H 	0.87942 0.10049 0.07912 0.12700
C 	C 	0.75558 0.07487 0.01238 -0.07600
C 	C 	0.71997 0.09899 0.00765 0.06700
C 	C 	0.75039 0.16513 0.00836 -0.00500
C 	C 	0.81756 0.20895 0.01842 -0.05500
C 	C 	0.85298 0.18445 0.02024 0.04000
C 	C 	0.72253 0.00391 0.01439 0.66000
H 	H 	0.66851 0.06614 0.00175 0.09300
C 	C 	0.85174 0.28153 0.02550 0.77100
H 	H 	0.90434 0.21713 0.02426 0.12900
F 	F 	0.92411 0.98811 0.08592 -0.30100
F 	F 	0.93217 0.07083 0.12260 -0.36700
F 	F 	0.01281 0.09005 0.09225 -0.35200
F 	F 	0.88424 0.15937 0.93795 -0.40000
F 	F 	0.78745 0.06317 0.92641 -0.39700
F 	F 	0.86581 0.07265 0.89819 -0.39300
F 	F 	0.91249 0.31440 0.04876 -0.38600
F 	F 	0.81938 0.29827 0.04734 -0.42700
F 	F 	0.85616 0.30120 0.98716 -0.39100
F 	F 	0.65785 0.97106 0.01267 -0.32500
F 	F 	0.74761 0.99867 0.05166 -0.32900
F 	F 	0.73106 0.97419 0.98106 -0.31100
C 	C 	0.33071 0.10130 0.97299 0.03500
C 	C 	0.31909 0.13955 0.99749 0.11000
C 	C 	0.37074 0.20142 0.02050 -0.10500
C 	C 	0.43317 0.22315 0.01875 0.07600
C 	C 	0.44468 0.18589 0.99305 0.01500
C 	C 	0.39313 0.12482 0.96928 -0.05300
C 	C 	0.25248 0.11326 0.99991 0.09300
C 	C 	0.35967 0.24263 0.04894 0.79100
H 	H 	0.47316 0.26919 0.03748 0.08600
C 	C 	0.40451 0.08566 0.93919 0.77700
H 	H 	0.29084 0.05343 0.95646 0.13000
C 	C 	0.21312 0.11332 0.96708 -0.07700
C 	C 	0.14849 0.08194 0.96869 0.03700
C 	C 	0.12376 0.05411 0.00334 0.09400
C 	C 	0.16452 0.05924 0.03779 -0.08900
C 	C 	0.22761 0.08540 0.03452 0.04300
C 	C 	0.23841 0.14213 0.92879 0.78400
H 	H 	0.11678 0.07745 0.94244 0.11200
C 	C 	0.14016 0.03352 0.07700 0.74800
H 	H 	0.25758 0.08402 0.05888 0.12600
F 	F 	0.34810 0.02927 0.91717 -0.38600
F 	F 	0.43865 0.06899 0.96133 -0.42100
F 	F 	0.43837 0.12193 0.91033 -0.42300
F 	F 	0.34036 0.21616 0.08430 -0.39600
F 	F 	0.31357 0.24573 0.02820 -0.37100
F 	F 	0.41450 0.30540 0.06174 -0.38600
F 	F 	0.10685 0.96706 0.06949 -0.32300
F 	F 	0.10077 0.04894 0.08840 -0.35100
F 	F 	0.18984 0.05997 0.11063 -0.36200
F 	F 	0.19756 0.15013 0.90552 -0.37300
F 	F 	0.24502 0.10135 0.90336 -0.39300
F 	F 	0.29673 0.20221 0.94069 -0.36600
