data_crystal

_cell_length_a 18.42066
_cell_length_b 18.66616
_cell_length_c 33.61905
_cell_angle_alpha 95.42102
_cell_angle_beta  95.42200
_cell_angle_gamma 126.43548

_symmetry_space_group_name_	'P 1'
_symmetry_space_group_name_H-M	'P 1'

loop_
_symmetry_equiv_pos_as_xyz
  x,y,z

loop_
_atom_site_label
_atom_site_type_symbol
_atom_site_fract_x
_atom_site_fract_y
_atom_site_fract_z
_atom_site_charge
C 	C 	0.91553 0.02352 0.97651 0.14900
N 	N 	0.86565 0.93210 0.97351 -0.10100
C 	C 	0.90627 0.89144 0.96731 0.18900
N 	N 	0.99566 0.94184 0.96340 -0.11300
C 	C 	0.04569 0.03302 0.96710 0.17800
N 	N 	0.00578 0.07385 0.97398 -0.10700
C 	C 	0.94351 0.00534 0.48798 0.14800
N 	N 	0.89384 0.91605 0.48995 -0.10100
C 	C 	0.93692 0.87837 0.49696 0.17800
N 	N 	0.02960 0.92975 0.50152 -0.09600
C 	C 	0.07922 0.01833 0.49837 0.16800
N 	N 	0.03631 0.05648 0.49187 -0.10500
Cu	Cu	0.76195 0.36406 0.96421 0.93400
Cu	Cu	0.72179 0.29500 0.05122 0.88700
Cu	Cu	0.61169 0.33839 0.00491 0.90900
Cu	Cu	0.58398 0.32943 0.91447 0.91400
C 	C 	0.71484 0.31491 0.87663 0.30000
O 	O 	0.80209 0.48948 0.95612 -0.33400
C 	C 	0.63451 0.35790 0.09334 0.28900
O 	O 	0.61809 0.28462 0.95393 -0.63300
O 	O 	0.74075 0.38367 0.01895 -0.63900
O 	O 	0.82969 0.31513 0.97994 -0.34100
O 	O 	0.71668 0.21202 0.01128 -0.40500
O 	O 	0.66952 0.34894 0.87723 -0.35500
O 	O 	0.48906 0.30510 0.98990 -0.34800
C 	C 	0.42906 0.24816 0.95689 0.33100
C 	C 	0.75016 0.51610 0.96047 0.31500
O 	O 	0.66076 0.45616 0.95780 -0.37000
O 	O 	0.45483 0.24906 0.92160 -0.35800
O 	O 	0.76503 0.32396 0.91012 -0.33200
C 	C 	0.78718 0.23846 0.99359 0.33200
O 	O 	0.60768 0.37575 0.06036 -0.33800
O 	O 	0.70212 0.35108 0.09558 -0.38600
H 	H 	0.58228 0.21786 0.94973 0.18100
H 	H 	0.78301 0.44718 0.03381 0.20000
Cu	Cu	0.61384 0.17225 0.50203 0.93500
Cu	Cu	0.67506 0.20383 0.41314 0.88700
Cu	Cu	0.63755 0.31811 0.45992 0.90800
Cu	Cu	0.65342 0.35079 0.55071 0.91400
C 	C 	0.67242 0.22518 0.58907 0.29900
O 	O 	0.48950 0.13524 0.51224 -0.33800
C 	C 	0.61054 0.28913 0.37108 0.28900
O 	O 	0.69535 0.31422 0.51059 -0.63300
O 	O 	0.58967 0.18990 0.44711 -0.64100
O 	O 	0.65837 0.10161 0.48557 -0.34500
O 	O 	0.76067 0.20883 0.45198 -0.40800
O 	O 	0.63724 0.26924 0.58888 -0.35600
O 	O 	0.67310 0.44013 0.47387 -0.34800
C 	C 	0.73122 0.50070 0.50651 0.33300
C 	C 	0.46226 0.18589 0.50707 0.31800
O 	O 	0.52264 0.27391 0.50907 -0.37000
O 	O 	0.73383 0.47682 0.54192 -0.35900
O 	O 	0.65845 0.17189 0.55589 -0.33200
C 	C 	0.73405 0.14047 0.47053 0.33600
O 	O 	0.59676 0.31962 0.40439 -0.33700
O 	O 	0.61509 0.22094 0.36925 -0.38700
H 	H 	0.76282 0.34898 0.51385 0.18200
H 	H 	0.52450 0.14795 0.43333 0.19900
C 	C 	0.75982 0.31960 0.76661 0.00200
C 	C 	0.80346 0.33827 0.73304 -0.04000
C 	C 	0.76073 0.26938 0.69842 0.03200
C 	C 	0.68150 0.18210 0.69939 0.00300
C 	C 	0.63839 0.16368 0.73328 -0.04000
C 	C 	0.68052 0.23319 0.76751 0.03200
S 	S 	0.81006 0.37493 0.81417 0.08700
C 	C 	0.73308 0.29364 0.83758 -0.05700
C 	C 	0.66410 0.21891 0.80740 -0.01400
S 	S 	0.62672 0.13098 0.65176 0.08400
C 	C 	0.70155 0.21315 0.62826 -0.05700
C 	C 	0.77199 0.28684 0.65840 -0.01100
H 	H 	0.86566 0.40520 0.73304 0.06700
H 	H 	0.57534 0.09731 0.73320 0.06600
H 	H 	0.60390 0.15757 0.81390 0.05800
H 	H 	0.81998 0.35433 0.65217 0.05500
C 	C 	0.65584 0.37640 0.26964 0.00200
C 	C 	0.68468 0.43282 0.24082 -0.04200
C 	C 	0.62854 0.39776 0.20213 0.02900
C 	C 	0.54219 0.31198 0.19437 0.00700
C 	C 	0.51363 0.25580 0.22342 -0.04400
C 	C 	0.57063 0.29052 0.26178 0.02800
S 	S 	0.69021 0.41071 0.31969 0.06800
C 	C 	0.60098 0.31824 0.33330 -0.05700
C 	C 	0.54033 0.25664 0.29753 -0.01100
S 	S 	0.51215 0.27459 0.14444 0.06600
C 	C 	0.60254 0.36522 0.13063 -0.05700
C 	C 	0.66267 0.42767 0.16626 -0.00900
H 	H 	0.75033 0.49968 0.24753 0.06900
H 	H 	0.44871 0.18834 0.21665 0.06700
H 	H 	0.47783 0.18977 0.29733 0.06500
H 	H 	0.73337 0.48445 0.16665 0.06600
C 	C 	0.88617 0.72282 0.47108 0.08100
C 	C 	0.88321 0.78172 0.49910 -0.04000
C 	C 	0.83005 0.74819 0.52959 0.08100
C 	C 	0.77610 0.65514 0.53060 0.12000
C 	C 	0.78434 0.59753 0.50447 -0.11100
C 	C 	0.84110 0.63215 0.47525 0.12000
Br	Br	0.86053 0.55656 0.44224 -0.21400
Br	Br	0.94730 0.76495 0.42558 -0.13800
Br	Br	0.68538 0.60577 0.56511 -0.15600
Br	Br	0.83511 0.83033 0.57132 -0.12000
C 	C 	0.90093 0.10136 0.51604 0.07500
C 	C 	0.89679 0.04675 0.48259 -0.03100
C 	C 	0.84145 0.02538 0.44490 0.05700
C 	C 	0.78634 0.05431 0.44123 0.12300
C 	C 	0.78978 0.10818 0.47477 -0.12100
C 	C 	0.84936 0.13414 0.51178 0.12300
Br	Br	0.86320 0.21753 0.55601 -0.18400
Br	Br	0.97451 0.12825 0.56805 -0.14400
Br	Br	0.70476 0.01883 0.39053 -0.22400
Br	Br	0.84272 0.95789 0.39816 -0.10200
C 	C 	0.32808 0.13226 0.54078 0.11700
C 	C 	0.36491 0.14632 0.50493 -0.10900
C 	C 	0.30985 0.12727 0.46750 0.11500
C 	C 	0.21646 0.08854 0.46552 0.08200
C 	C 	0.17903 0.07198 0.50119 -0.03900
C 	C 	0.23559 0.09668 0.53897 0.08000
Br	Br	0.18615 0.08245 0.58823 -0.13500
Br	Br	0.40462 0.16233 0.59236 -0.17400
Br	Br	0.13879 0.05486 0.41375 -0.13700
Br	Br	0.36244 0.15461 0.41906 -0.19700
C 	C 	0.84245 0.75759 0.00118 0.08900
C 	C 	0.85423 0.79296 0.96510 -0.04500
C 	C 	0.83001 0.73679 0.92752 0.08400
C 	C 	0.79998 0.64732 0.92624 0.11400
C 	C 	0.78994 0.61238 0.96240 -0.10400
C 	C 	0.80906 0.66693 0.99976 0.11100
Br	Br	0.78944 0.61747 0.04891 -0.18900
Br	Br	0.87501 0.83433 0.05266 -0.12100
Br	Br	0.77267 0.57255 0.87495 -0.17200
Br	Br	0.83748 0.78268 0.87778 -0.12800
C 	C 	0.89281 0.12204 0.01990 0.07800
C 	C 	0.87209 0.06844 0.98201 -0.03400
C 	C 	0.82113 0.06871 0.94810 0.05700
C 	C 	0.79283 0.12413 0.95189 0.12500
C 	C 	0.81839 0.18183 0.98923 -0.11900
C 	C 	0.86777 0.18015 0.02332 0.12000
Br	Br	0.90282 0.25901 0.07445 -0.21500
Br	Br	0.95504 0.11515 0.06713 -0.14900
Br	Br	0.71667 0.11885 0.90640 -0.19400
Br	Br	0.79273 0.99530 0.89618 -0.09700
C 	C 	0.20536 0.08708 0.99197 0.08000
C 	C 	0.14347 0.08768 0.96425 -0.04200
C 	C 	0.17528 0.14031 0.93368 0.08100
C 	C 	0.26958 0.19667 0.93256 0.11900
C 	C 	0.33047 0.19148 0.95858 -0.11100
C 	C 	0.29745 0.13449 0.98754 0.11800
Br	Br	0.37722 0.11802 0.01981 -0.22100
Br	Br	0.16551 0.02631 0.03757 -0.14500
Br	Br	0.31588 0.28631 0.89811 -0.15600
Br	Br	0.08924 0.13146 0.89202 -0.13200
