data_crystal

_cell_length_a 26.48343
_cell_length_b 26.36664
_cell_length_c 26.43363
_cell_angle_alpha 95.50500
_cell_angle_beta  95.50293
_cell_angle_gamma 125.84825

_symmetry_space_group_name_	'P 1'
_symmetry_space_group_name_H-M	'P 1'

loop_
_symmetry_equiv_pos_as_xyz
  x,y,z

loop_
_atom_site_label
_atom_site_type_symbol
_atom_site_fract_x
_atom_site_fract_y
_atom_site_fract_z
_atom_site_charge
C 	C 	0.95715 0.02374 0.97351 0.10500
C 	C 	0.02125 0.05599 0.96975 -0.07700
C 	C 	0.05062 0.02609 0.97637 0.10600
C 	C 	0.01524 0.96352 0.98554 -0.07300
C 	C 	0.95032 0.92997 0.98585 0.11400
C 	C 	0.92153 0.96037 0.98059 -0.07500
H 	H 	0.04829 0.10428 0.96252 0.10400
H 	H 	0.03769 0.94022 0.99050 0.10200
H 	H 	0.87152 0.93478 0.98186 0.10300
C 	C 	0.95667 0.01624 0.44778 0.10100
C 	C 	0.02049 0.04878 0.44313 -0.07600
C 	C 	0.05079 0.02006 0.45002 0.10900
C 	C 	0.01614 0.95697 0.45743 -0.07100
C 	C 	0.95141 0.92276 0.45885 0.11100
C 	C 	0.92208 0.95300 0.45567 -0.06900
H 	H 	0.04719 0.09729 0.43636 0.10300
H 	H 	0.03933 0.93429 0.46152 0.10400
H 	H 	0.87259 0.92735 0.45883 0.10500
Cu	Cu	0.63230 0.23721 0.00751 0.93900
Cu	Cu	0.64627 0.21132 0.88421 0.90400
Cu	Cu	0.67145 0.33999 0.94232 0.91600
Cu	Cu	0.62878 0.35323 0.04394 0.92100
C 	C 	0.65697 0.28938 0.11610 0.39100
O 	O 	0.53858 0.19309 0.00747 -0.30800
C 	C 	0.65201 0.30203 0.82889 0.38800
O 	O 	0.67901 0.33534 0.01383 -0.63500
O 	O 	0.61955 0.24471 0.93387 -0.63200
O 	O 	0.68576 0.20625 0.00589 -0.31200
O 	O 	0.64435 0.15312 0.92212 -0.37800
O 	O 	0.62607 0.31333 0.10498 -0.34300
O 	O 	0.71940 0.43153 0.95688 -0.32900
C 	C 	0.70856 0.46283 0.99076 0.32300
C 	C 	0.51092 0.21958 0.99454 0.30900
O 	O 	0.54530 0.27888 0.98761 -0.35000
O 	O 	0.66036 0.43259 0.01539 -0.33600
O 	O 	0.65355 0.24718 0.08141 -0.31000
C 	C 	0.68509 0.17300 0.96505 0.32300
O 	O 	0.68457 0.34775 0.87037 -0.33300
O 	O 	0.61971 0.24163 0.83267 -0.36400
H 	H 	0.72372 0.36231 0.03220 0.20300
H 	H 	0.57476 0.22578 0.92023 0.19600
Cu	Cu	0.74771 0.34781 0.44238 0.94000
Cu	Cu	0.73357 0.28803 0.54659 0.90000
Cu	Cu	0.64755 0.31449 0.50842 0.90700
Cu	Cu	0.62718 0.34068 0.40517 0.92000
C 	C 	0.70143 0.32819 0.33450 0.39900
O 	O 	0.78037 0.43976 0.44321 -0.31300
C 	C 	0.68391 0.32606 0.62055 0.38700
O 	O 	0.64836 0.29303 0.43692 -0.63700
O 	O 	0.73980 0.35483 0.51578 -0.63500
O 	O 	0.79543 0.31100 0.44720 -0.32400
O 	O 	0.72137 0.23460 0.48595 -0.39300
O 	O 	0.67582 0.35658 0.34802 -0.34200
O 	O 	0.55656 0.26872 0.49932 -0.33400
C 	C 	0.51912 0.26570 0.46035 0.33900
C 	C 	0.75038 0.46128 0.46162 0.32500
O 	O 	0.69171 0.42072 0.46777 -0.36500
O 	O 	0.54096 0.29648 0.42188 -0.34400
O 	O 	0.73948 0.32647 0.36912 -0.31900
C 	C 	0.76844 0.25532 0.46103 0.33200
O 	O 	0.64917 0.32907 0.58318 -0.33100
O 	O 	0.73052 0.32329 0.61177 -0.36100
H 	H 	0.62138 0.24682 0.42237 0.20600
H 	H 	0.76774 0.39793 0.53767 0.21400
C 	C 	0.71814 0.36457 0.76617 0.27900
C 	C 	0.65800 0.31883 0.77702 -0.19000
C 	C 	0.60491 0.28337 0.73651 0.28300
C 	C 	0.61272 0.28929 0.68524 0.27900
C 	C 	0.67366 0.33084 0.67410 -0.18700
C 	C 	0.72586 0.37067 0.71495 0.28300
F 	F 	0.78448 0.41377 0.70485 -0.36500
F 	F 	0.76972 0.40045 0.80496 -0.36800
F 	F 	0.56155 0.25190 0.64623 -0.36900
F 	F 	0.54601 0.24160 0.74671 -0.36400
C 	C 	0.72786 0.35698 0.20014 0.27900
C 	C 	0.68004 0.29611 0.17093 -0.18400
C 	C 	0.64737 0.24394 0.19610 0.28900
C 	C 	0.65859 0.25364 0.25027 0.28200
C 	C 	0.70233 0.31547 0.27945 -0.18600
C 	C 	0.73903 0.36662 0.25421 0.29000
F 	F 	0.78299 0.42631 0.28216 -0.36100
F 	F 	0.76119 0.40740 0.17613 -0.38100
F 	F 	0.62413 0.20357 0.27437 -0.37500
F 	F 	0.60179 0.18460 0.16824 -0.35700
C 	C 	0.77746 0.52922 0.46498 -0.10300
C 	C 	0.74201 0.54659 0.43912 0.13500
C 	C 	0.76628 0.61097 0.44505 0.06800
C 	C 	0.82956 0.65868 0.46964 0.02500
C 	C 	0.86616 0.64167 0.49360 0.07000
C 	C 	0.83894 0.57707 0.49362 0.13000
C 	C 	0.85890 0.72620 0.46664 0.01100
C 	C 	0.87796 0.74822 0.42057 0.07900
C 	C 	0.90185 0.81099 0.41646 0.09300
C 	C 	0.91370 0.85403 0.46019 -0.04500
C 	C 	0.89550 0.83236 0.50657 0.09300
C 	C 	0.86563 0.76780 0.50904 0.08100
Br	Br	0.95400 0.70667 0.52482 -0.10200
Br	Br	0.66393 0.48350 0.39085 -0.16500
Br	Br	0.91694 0.83783 0.35067 -0.11000
Br	Br	0.83312 0.73602 0.57000 -0.10200
Br	Br	0.88453 0.55440 0.53487 -0.13300
Br	Br	0.71303 0.63404 0.41934 -0.10300
Br	Br	0.87313 0.69290 0.36376 -0.09700
Br	Br	0.91407 0.89160 0.56723 -0.11300
C 	C 	0.92725 0.04980 0.44719 -0.04100
C 	C 	0.95311 0.10506 0.48450 0.08800
C 	C 	0.93141 0.14208 0.47936 0.08200
C 	C 	0.87560 0.11758 0.44383 0.00900
C 	C 	0.84631 0.05949 0.40917 0.08300
C 	C 	0.87523 0.02860 0.40807 0.08400
C 	C 	0.84504 0.15004 0.44617 0.02500
C 	C 	0.81755 0.15036 0.48904 0.06700
C 	C 	0.80112 0.19188 0.49709 0.13200
C 	C 	0.79715 0.22121 0.45638 -0.11100
C 	C 	0.81839 0.21530 0.41062 0.13000
C 	C 	0.84756 0.18468 0.40776 0.06800
Br	Br	0.76527 0.02067 0.36536 -0.10800
Br	Br	0.01345 0.12652 0.54517 -0.11500
Br	Br	0.79478 0.21634 0.56601 -0.20600
Br	Br	0.89333 0.19273 0.35283 -0.10100
Br	Br	0.84680 0.96087 0.35101 -0.10700
Br	Br	0.97875 0.22678 0.52010 -0.11200
Br	Br	0.80173 0.09342 0.53637 -0.11300
Br	Br	0.80222 0.24308 0.35031 -0.09800
C 	C 	0.11966 0.05712 0.45197 -0.04700
C 	C 	0.14364 0.06510 0.40574 0.09300
C 	C 	0.20938 0.10041 0.40770 0.08000
C 	C 	0.25093 0.12566 0.45586 0.01100
C 	C 	0.22681 0.11675 0.50206 0.07900
C 	C 	0.16134 0.08354 0.50014 0.09400
C 	C 	0.31997 0.16167 0.45794 0.02500
C 	C 	0.34709 0.12908 0.45413 0.07000
C 	C 	0.41249 0.16321 0.45484 0.13200
C 	C 	0.45118 0.23015 0.46142 -0.10200
C 	C 	0.42441 0.26289 0.46726 0.13100
C 	C 	0.35861 0.22857 0.46418 0.06900
Br	Br	0.28368 0.14966 0.56786 -0.09400
Br	Br	0.08617 0.02624 0.33984 -0.11800
Br	Br	0.44879 0.11823 0.44484 -0.13700
Br	Br	0.32106 0.27290 0.46793 -0.10400
Br	Br	0.12855 0.07467 0.56345 -0.11500
Br	Br	0.24280 0.11464 0.34459 -0.10800
Br	Br	0.29444 0.03770 0.44806 -0.10600
Br	Br	0.47828 0.35484 0.48146 -0.11700
C 	C 	0.91165 0.86165 0.98843 -0.05400
C 	C 	0.88948 0.81606 0.94319 0.09500
C 	C 	0.85835 0.75163 0.94632 0.07900
C 	C 	0.84463 0.73190 0.99401 0.00600
C 	C 	0.86353 0.77705 0.03880 0.08600
C 	C 	0.89846 0.84212 0.03625 0.10000
C 	C 	0.80934 0.66356 0.99676 0.01800
C 	C 	0.74284 0.62230 0.98159 0.06900
C 	C 	0.71004 0.55624 0.97755 0.12900
C 	C 	0.74298 0.53186 0.99349 -0.10600
C 	C 	0.80906 0.57358 0.01159 0.13300
C 	C 	0.84249 0.63912 0.01160 0.07600
Br	Br	0.84094 0.74946 0.10333 -0.09900
Br	Br	0.89927 0.84165 0.87672 -0.10900
Br	Br	0.62114 0.49901 0.94642 -0.12200
Br	Br	0.93378 0.69532 0.03073 -0.09700
Br	Br	0.92885 0.90467 0.09817 -0.10900
Br	Br	0.83543 0.69038 0.88555 -0.10100
Br	Br	0.69690 0.65656 0.96630 -0.10800
Br	Br	0.85336 0.54113 0.03785 -0.11700
C 	C 	0.92742 0.05670 0.97147 -0.05300
C 	C 	0.92644 0.08724 0.01771 0.09900
C 	C 	0.88993 0.11009 0.01682 0.08700
C 	C 	0.85415 0.10217 0.96969 0.00200
C 	C 	0.85771 0.07454 0.92310 0.08200
C 	C 	0.89446 0.05194 0.92401 0.09200
C 	C 	0.81099 0.12073 0.96939 0.02700
C 	C 	0.74789 0.07650 0.97568 0.05900
C 	C 	0.70692 0.09409 0.97543 0.13200
C 	C 	0.72876 0.15560 0.96828 -0.11300
C 	C 	0.79193 0.19997 0.96240 0.12300
C 	C 	0.83310 0.18262 0.96312 0.06700
Br	Br	0.81120 0.06665 0.85831 -0.11900
Br	Br	0.97374 0.09601 0.08242 -0.11400
Br	Br	0.62116 0.03436 0.98565 -0.11700
Br	Br	0.91974 0.24342 0.95538 -0.10800
Br	Br	0.89871 0.01316 0.86046 -0.12300
Br	Br	0.88782 0.15119 0.08016 -0.10000
Br	Br	0.71775 0.99181 0.98439 -0.09900
Br	Br	0.82160 0.28417 0.95247 -0.18700
C 	C 	0.44094 0.18164 0.98436 -0.10900
C 	C 	0.40572 0.14621 0.02087 0.12600
C 	C 	0.34020 0.11680 0.01377 0.07500
C 	C 	0.31178 0.13038 0.97494 0.01600
C 	C 	0.34718 0.16664 0.93912 0.06900
C 	C 	0.40981 0.18712 0.94121 0.12300
C 	C 	0.24524 0.10765 0.97249 0.00400
C 	C 	0.19645 0.05572 0.93408 0.08300
C 	C 	0.13376 0.03524 0.93144 0.08500
C 	C 	0.11799 0.05926 0.97194 -0.05000
C 	C 	0.16668 0.11049 0.01103 0.09800
C 	C 	0.23047 0.13725 0.00920 0.08700
Br	Br	0.31119 0.19122 0.88914 -0.10300
Br	Br	0.44767 0.14299 0.08303 -0.09400
Br	Br	0.07026 0.97711 0.87119 -0.09900
Br	Br	0.29760 0.21469 0.05638 -0.11200
Br	Br	0.45096 0.21780 0.88317 -0.13400
Br	Br	0.28927 0.05769 0.05688 -0.10600
Br	Br	0.21489 0.01048 0.88707 -0.11100
Br	Br	0.14603 0.14094 0.06888 -0.11500
