data_crystal

_cell_length_a 18.65622
_cell_length_b 18.86654
_cell_length_c 43.05031
_cell_angle_alpha 95.41527
_cell_angle_beta  95.41541
_cell_angle_gamma 126.45054

_symmetry_space_group_name_	'P 1'
_symmetry_space_group_name_H-M	'P 1'

loop_
_symmetry_equiv_pos_as_xyz
  x,y,z

loop_
_atom_site_label
_atom_site_type_symbol
_atom_site_fract_x
_atom_site_fract_y
_atom_site_fract_z
_atom_site_charge
C 	C 	0.92625 0.99605 0.97370 0.03000
C 	C 	0.01936 0.05130 0.97338 -0.07600
C 	C 	0.06747 0.01613 0.97431 0.03800
C 	C 	0.02267 0.92536 0.97543 -0.07900
C 	C 	0.92908 0.86881 0.97486 0.03700
C 	C 	0.88068 0.90433 0.97437 -0.07400
H 	H 	0.05454 0.12193 0.97280 0.05200
H 	H 	0.06028 0.89834 0.97617 0.05400
H 	H 	0.80853 0.86120 0.97451 0.05200
C 	C 	0.93010 0.04172 0.49741 0.04000
C 	C 	0.87336 0.95024 0.49872 -0.08100
C 	C 	0.90800 0.90174 0.49875 0.03700
C 	C 	0.99944 0.94456 0.49729 -0.07500
C 	C 	0.05727 0.03664 0.49704 0.03700
C 	C 	0.02253 0.08536 0.49693 -0.07800
H 	H 	0.80213 0.91664 0.49930 0.05300
H 	H 	0.02597 0.90665 0.49697 0.05200
H 	H 	0.06681 0.15638 0.49625 0.05300
Cu	Cu	0.77557 0.33908 0.96771 0.92700
Cu	Cu	0.75975 0.27153 0.03583 0.87100
Cu	Cu	0.63006 0.29547 0.00656 0.89600
Cu	Cu	0.60702 0.33140 0.94210 0.89400
C 	C 	0.71058 0.30413 0.90070 0.28800
O 	O 	0.82720 0.46908 0.96602 -0.35800
C 	C 	0.68020 0.32342 0.07647 0.28600
O 	O 	0.63384 0.26483 0.96335 -0.63900
O 	O 	0.76287 0.35564 0.01242 -0.64200
O 	O 	0.83660 0.28091 0.97270 -0.36900
O 	O 	0.73439 0.18574 0.00116 -0.43800
O 	O 	0.67516 0.34582 0.90714 -0.38600
O 	O 	0.50004 0.22761 0.99889 -0.38800
C 	C 	0.45080 0.23242 0.97630 0.30100
C 	C 	0.78600 0.50231 0.97573 0.28700
O 	O 	0.70120 0.44779 0.97900 -0.39600
O 	O 	0.48556 0.27791 0.95336 -0.39600
O 	O 	0.76460 0.30469 0.92308 -0.36300
C 	C 	0.79695 0.20653 0.98428 0.29600
O 	O 	0.62682 0.31723 0.05198 -0.38300
O 	O 	0.75282 0.32922 0.07290 -0.41800
H 	H 	0.59471 0.19964 0.95464 0.16600
H 	H 	0.80103 0.41824 0.02427 0.17800
Cu	Cu	0.59737 0.20416 0.50374 0.92800
Cu	Cu	0.66297 0.22022 0.43514 0.87000
Cu	Cu	0.64056 0.35024 0.46631 0.89700
Cu	Cu	0.60089 0.36636 0.53104 0.89400
C 	C 	0.62610 0.25921 0.57112 0.28900
O 	O 	0.46588 0.15038 0.50555 -0.36100
C 	C 	0.60543 0.29767 0.39587 0.28700
O 	O 	0.67033 0.34392 0.50933 -0.64000
O 	O 	0.58054 0.21895 0.45947 -0.64200
O 	O 	0.65559 0.14431 0.49757 -0.37100
O 	O 	0.75199 0.24513 0.46903 -0.44000
O 	O 	0.58484 0.29537 0.56505 -0.38700
O 	O 	0.70671 0.47867 0.47549 -0.38600
C 	C 	0.69765 0.52409 0.49799 0.29900
C 	C 	0.43058 0.18967 0.49607 0.28800
O 	O 	0.48423 0.27438 0.49362 -0.39700
O 	O 	0.65465 0.48808 0.52139 -0.39500
O 	O 	0.63265 0.21307 0.54806 -0.36100
C 	C 	0.73199 0.18517 0.48678 0.29300
O 	O 	0.62932 0.35906 0.42090 -0.38600
O 	O 	0.60132 0.22648 0.39890 -0.42000
H 	H 	0.73608 0.38288 0.51835 0.16500
H 	H 	0.51695 0.18144 0.44791 0.17600
C 	C 	0.64296 0.25000 0.60401 -0.08500
C 	C 	0.72902 0.27806 0.61800 0.01400
C 	C 	0.74603 0.27318 0.64980 -0.06600
C 	C 	0.67705 0.24025 0.66780 0.02700
C 	C 	0.59060 0.21081 0.65360 -0.06600
C 	C 	0.57365 0.21571 0.62186 0.01700
C 	C 	0.69646 0.24137 0.70196 -0.00000
C 	C 	0.64785 0.16112 0.71373 -0.03800
C 	C 	0.65592 0.16332 0.74650 -0.03800
C 	C 	0.71264 0.24578 0.76776 -0.00000
C 	C 	0.76500 0.32565 0.75598 -0.03800
C 	C 	0.75693 0.32345 0.72322 -0.03800
C 	C 	0.70945 0.24938 0.80197 0.02700
C 	C 	0.78841 0.28666 0.82443 -0.06600
C 	C 	0.78784 0.30035 0.85691 0.01700
C 	C 	0.70834 0.27723 0.86714 -0.08600
C 	C 	0.62845 0.23612 0.84470 0.01300
C 	C 	0.62899 0.22227 0.81229 -0.06600
H 	H 	0.78326 0.30576 0.60454 0.02600
H 	H 	0.81302 0.29613 0.66056 0.04600
H 	H 	0.53702 0.18564 0.66732 0.04600
H 	H 	0.50680 0.19335 0.61120 0.03400
H 	H 	0.60176 0.09734 0.69750 0.03900
H 	H 	0.61592 0.10123 0.75536 0.03900
H 	H 	0.80913 0.38963 0.77219 0.03900
H 	H 	0.79496 0.38574 0.71438 0.03800
H 	H 	0.85069 0.30715 0.81671 0.04700
H 	H 	0.84994 0.33198 0.87399 0.03800
H 	H 	0.56647 0.21706 0.85234 0.02100
H 	H 	0.56762 0.19316 0.79515 0.04500
C 	C 	0.66193 0.33016 0.10880 -0.08900
C 	C 	0.62181 0.37134 0.11697 0.01500
C 	C 	0.60764 0.37990 0.14805 -0.06700
C 	C 	0.63309 0.34702 0.17110 0.02600
C 	C 	0.67107 0.30402 0.16269 -0.06800
C 	C 	0.68561 0.29584 0.13178 0.01300
C 	C 	0.62193 0.35897 0.20423 -0.00100
C 	C 	0.69790 0.40603 0.22893 -0.03900
C 	C 	0.68660 0.40369 0.26053 -0.03900
C 	C 	0.59919 0.35527 0.26780 -0.00100
C 	C 	0.52349 0.31335 0.24319 -0.03900
C 	C 	0.53481 0.31483 0.21151 -0.03900
C 	C 	0.58678 0.34095 0.30069 0.02500
C 	C 	0.63631 0.41435 0.32613 -0.06700
C 	C 	0.63878 0.40035 0.35742 0.01200
C 	C 	0.59028 0.31273 0.36363 -0.09000
C 	C 	0.53507 0.23943 0.33829 0.01300
C 	C 	0.53386 0.25344 0.30699 -0.06700
H 	H 	0.60299 0.39794 0.09947 0.03400
H 	H 	0.57799 0.41296 0.15430 0.04500
H 	H 	0.68971 0.27729 0.18020 0.04400
H 	H 	0.71508 0.26252 0.12565 0.02300
H 	H 	0.76552 0.44133 0.22356 0.03800
H 	H 	0.74557 0.43651 0.27927 0.03700
H 	H 	0.45580 0.27711 0.24854 0.03700
H 	H 	0.47575 0.27888 0.19263 0.03800
H 	H 	0.67612 0.48222 0.32159 0.04400
H 	H 	0.68204 0.45752 0.37664 0.03200
H 	H 	0.49563 0.17150 0.34275 0.03000
H 	H 	0.49484 0.19621 0.28760 0.04400
C 	C 	0.74467 0.62037 0.49891 -0.09400
C 	C 	0.80505 0.68167 0.52661 -0.00500
C 	C 	0.85603 0.77390 0.52726 -0.00300
C 	C 	0.84803 0.80542 0.49973 0.00000
C 	C 	0.78450 0.74427 0.47255 -0.07000
C 	C 	0.73183 0.65200 0.47213 0.05600
S 	S 	0.92797 0.84919 0.56284 -0.04800
S 	S 	0.64745 0.57722 0.43860 -0.05200
H 	H 	0.68542 0.55774 0.41698 0.04400
H 	H 	0.88170 0.86959 0.57964 0.03500
H 	H 	0.81329 0.65752 0.54751 0.03400
H 	H 	0.77651 0.76860 0.45165 0.04900
C 	C 	0.89119 0.09034 0.49500 -0.00000
C 	C 	0.87367 0.11935 0.52246 -0.07000
C 	C 	0.82220 0.15100 0.52019 0.05500
C 	C 	0.78765 0.15365 0.49007 -0.10000
C 	C 	0.80827 0.12789 0.46273 -0.00500
C 	C 	0.85962 0.09625 0.46503 -0.00400
S 	S 	0.80366 0.18911 0.55520 -0.03600
S 	S 	0.88179 0.06181 0.43014 -0.04900
H 	H 	0.81592 0.97156 0.41963 0.03100
H 	H 	0.87119 0.27929 0.56499 0.03200
H 	H 	0.89825 0.11521 0.54554 0.05100
H 	H 	0.78295 0.13103 0.43958 0.01600
C 	C 	0.33391 0.14623 0.49561 -0.09400
C 	C 	0.30130 0.12960 0.52415 -0.00700
C 	C 	0.21253 0.09860 0.52526 -0.00300
C 	C 	0.15459 0.08191 0.49737 0.00000
C 	C 	0.18728 0.09889 0.46883 -0.07000
C 	C 	0.27652 0.13090 0.46780 0.05500
S 	S 	0.17516 0.08243 0.56182 -0.04200
S 	S 	0.31469 0.14881 0.43140 -0.06700
H 	H 	0.35516 0.23618 0.42860 0.04000
H 	H 	0.14034 0.99714 0.56595 0.03500
H 	H 	0.34587 0.14303 0.54570 0.04000
H 	H 	0.14262 0.08533 0.44729 0.05000
C 	C 	0.88224 0.77205 0.97422 0.00100
C 	C 	0.86779 0.73984 0.00283 -0.07100
C 	C 	0.84062 0.65318 0.00397 0.05300
C 	C 	0.82731 0.59763 0.97616 -0.09100
C 	C 	0.84074 0.62949 0.94749 -0.00800
C 	C 	0.86694 0.71569 0.94629 -0.00200
S 	S 	0.82658 0.61618 0.04054 -0.06500
S 	S 	0.87965 0.75214 0.90964 -0.04200
H 	H 	0.96711 0.79275 0.90549 0.03700
H 	H 	0.73788 0.57181 0.04376 0.04000
H 	H 	0.88057 0.78329 0.02444 0.04900
H 	H 	0.82835 0.58621 0.92590 0.04100
C 	C 	0.87879 0.03659 0.97582 0.00700
C 	C 	0.87986 0.07330 0.00587 -0.07700
C 	C 	0.85756 0.13224 0.00896 0.06400
C 	C 	0.82954 0.15186 0.98156 -0.10100
C 	C 	0.82577 0.11298 0.95142 0.00000
C 	C 	0.85016 0.05552 0.94842 -0.00600
S 	S 	0.87179 0.18624 0.04725 -0.12000
S 	S 	0.84563 0.00847 0.91029 -0.04000
H 	H 	0.92899 0.06217 0.90191 0.03500
H 	H 	0.95788 0.26535 0.05549 0.03300
H 	H 	0.90328 0.06011 0.02699 0.05200
H 	H 	0.80320 0.12685 0.93030 0.04000
C 	C 	0.35296 0.18176 0.97563 -0.09400
C 	C 	0.29197 0.12565 0.94728 -0.00500
C 	C 	0.19850 0.07272 0.94641 -0.00300
C 	C 	0.16535 0.07470 0.97428 0.00100
C 	C 	0.22604 0.13271 0.00240 -0.07200
C 	C 	0.31957 0.18723 0.00314 0.05600
S 	S 	0.12360 0.00549 0.91019 -0.04700
S 	S 	0.39354 0.26548 0.03801 -0.05000
H 	H 	0.41968 0.22724 0.05696 0.04600
H 	H 	0.10009 0.05193 0.89535 0.03500
H 	H 	0.31739 0.12243 0.92597 0.03400
H 	H 	0.20033 0.13571 0.02365 0.05000
