data_crystal

_cell_length_a 23.82484
_cell_length_b 24.22115
_cell_length_c 35.12147
_cell_angle_alpha 95.52510
_cell_angle_beta  95.52179
_cell_angle_gamma 125.81171

_symmetry_space_group_name_	'P 1'
_symmetry_space_group_name_H-M	'P 1'

loop_
_symmetry_equiv_pos_as_xyz
  x,y,z

loop_
_atom_site_label
_atom_site_type_symbol
_atom_site_fract_x
_atom_site_fract_y
_atom_site_fract_z
_atom_site_charge
N 	N 	0.04182 0.09863 0.99492 -0.13700
C 	C 	0.05194 0.05607 0.97387 0.09300
N 	N 	0.00857 0.00080 0.44349 -0.13500
C 	C 	0.02940 0.96549 0.42518 0.09400
N 	N 	0.12444 0.97466 0.39591 -0.16400
C 	C 	0.09008 0.00135 0.40533 0.05700
C 	C 	0.13115 0.07205 0.40501 -0.07400
H 	H 	0.12650 0.10863 0.42185 0.05400
H 	H 	0.11436 0.92970 0.40410 0.08700
H 	H 	0.02586 0.20616 0.99521 0.04800
N 	N 	0.15441 0.05547 0.96975 -0.16300
C 	C 	0.12078 0.08416 0.96302 0.05500
H 	H 	0.13517 0.01296 0.98360 0.08600
C 	C 	0.25897 0.15327 0.40706 -0.08700
C 	C 	0.19311 0.08852 0.39460 0.02100
C 	C 	0.18739 0.02753 0.38957 0.07300
C 	C 	0.24780 0.02974 0.39625 -0.08200
H 	H 	0.26288 0.19914 0.41765 0.05300
H 	H 	0.24354 0.98324 0.39877 0.05000
C 	C 	0.22341 0.10557 0.97132 0.07100
C 	C 	0.27675 0.10768 0.99399 -0.08400
C 	C 	0.23393 0.16662 0.96486 0.02100
C 	C 	0.16846 0.15311 0.95972 -0.07500
H 	H 	0.26898 0.06038 0.99893 0.05100
H 	H 	0.16013 0.19230 0.96572 0.05400
C 	C 	0.31946 0.15564 0.40869 0.07600
C 	C 	0.31374 0.09472 0.40303 0.01000
C 	C 	0.33893 0.17273 0.01157 0.01100
C 	C 	0.34952 0.23359 0.00497 0.07900
C 	C 	0.29710 0.23167 0.98158 -0.09100
H 	H 	0.30502 0.27906 0.97670 0.05300
N 	N 	0.38178 0.20710 0.43145 -0.15200
C 	C 	0.37491 0.10987 0.42390 -0.05200
H 	H 	0.38165 0.07223 0.43287 0.04300
H 	H 	0.39376 0.25332 0.44634 0.08600
C 	C 	0.40473 0.18723 0.01961 -0.04400
H 	H 	0.41483 0.14914 0.01503 0.04600
C 	C 	0.41484 0.17913 0.44162 0.00200
N 	N 	0.41881 0.28481 0.00876 -0.15200
C 	C 	0.45237 0.25677 0.01764 -0.00200
H 	H 	0.43974 0.32863 0.99594 0.08400
C 	C 	0.49102 0.22140 0.45590 0.25900
H 	H 	0.01538 0.11233 0.47621 0.05200
O 	O 	0.51546 0.20466 0.48433 -0.37200
O 	O 	0.53247 0.28073 0.44416 -0.38600
C 	C 	0.52785 0.29206 0.01788 0.25600
H 	H 	0.52479 0.17071 0.74558 0.03700
O 	O 	0.55909 0.26674 0.03294 -0.35800
O 	O 	0.56544 0.35270 0.00732 -0.38600
H 	H 	0.55060 0.17985 0.67919 0.03900
H 	H 	0.56987 0.25082 0.62374 0.08500
C 	C 	0.57119 0.21846 0.74047 -0.04100
H 	H 	0.57840 0.25584 0.95740 0.17300
O 	O 	0.59237 0.23321 0.55480 -0.40100
H 	H 	0.60532 0.20602 0.43382 0.16100
C 	C 	0.58564 0.22381 0.70278 -0.03900
H 	H 	0.62269 0.33473 0.26873 0.03800
H 	H 	0.61902 0.27138 0.32202 0.02500
H 	H 	0.59231 0.21417 0.81966 0.03200
Cu	Cu	0.61508 0.25108 0.50269 0.89600
H 	H 	0.63945 0.35179 0.20187 0.04200
Cu	Cu	0.62840 0.31937 0.43306 0.89300
C 	C 	0.60838 0.26329 0.81205 0.00900
O 	O 	0.63491 0.25214 0.45116 -0.64000
C 	C 	0.62130 0.26261 0.62297 -0.17400
C 	C 	0.65377 0.32195 0.25530 -0.03800
O 	O 	0.62963 0.28795 0.96811 -0.64400
C 	C 	0.61785 0.27356 0.77169 0.00400
C 	C 	0.63832 0.25345 0.58708 0.32800
C 	C 	0.62125 0.31623 0.84044 -0.17300
C 	C 	0.66447 0.33292 0.21756 -0.03800
Cu	Cu	0.65679 0.30067 0.02499 0.92800
C 	C 	0.63337 0.31615 0.88016 0.32500
O 	O 	0.67115 0.40582 0.09344 -0.39600
O 	O 	0.63071 0.26434 0.89142 -0.43000
H 	H 	0.62645 0.36053 0.83151 0.08500
C 	C 	0.66624 0.27917 0.31469 0.01200
Cu	Cu	0.66714 0.43629 0.04292 0.89400
C 	C 	0.64716 0.28436 0.69600 0.00400
C 	C 	0.68174 0.29341 0.27544 0.00700
O 	O 	0.64450 0.36706 0.90569 -0.39400
C 	C 	0.66907 0.28601 0.65794 0.01100
O 	O 	0.68772 0.33585 0.39292 -0.39200
Cu	Cu	0.67302 0.38569 0.96268 0.89500
C 	C 	0.69825 0.37396 0.10437 0.33100
O 	O 	0.69753 0.32902 0.07929 -0.37500
C 	C 	0.67819 0.33495 0.76468 -0.04000
H 	H 	0.67894 0.61710 0.00817 0.04900
C 	C 	0.70543 0.31754 0.19978 0.00800
H 	H 	0.69894 0.05280 0.48828 0.04100
Cu	Cu	0.68636 0.27462 0.93830 0.86700
O 	O 	0.69769 0.24868 0.02406 -0.36700
O 	O 	0.69877 0.39574 0.48524 -0.38100
O 	O 	0.69512 0.25618 0.58615 -0.42900
C 	C 	0.69026 0.61499 0.97915 -0.05100
O 	O 	0.70224 0.51900 0.01790 -0.38300
O 	O 	0.70034 0.16714 0.49410 -0.43600
C 	C 	0.69271 0.34021 0.72703 -0.04100
C 	C 	0.71299 0.30120 0.38343 0.32400
O 	O 	0.71126 0.40387 0.01704 -0.63800
C 	C 	0.70785 0.52167 0.98092 0.26100
Cu	Cu	0.71072 0.22227 0.54016 0.87100
C 	C 	0.71483 0.32669 0.15912 0.01200
C 	C 	0.71678 0.37947 0.14424 -0.16600
C 	C 	0.71602 0.28784 0.34443 -0.16700
H 	H 	0.71687 0.28980 0.14027 0.04300
C 	C 	0.71265 0.66697 0.95766 0.01100
C 	C 	0.71315 0.57766 0.96434 0.00300
H 	H 	0.71181 0.74089 0.99725 0.05100
C 	C 	0.72001 0.27497 0.25707 -0.03700
O 	O 	0.71827 0.29509 0.51707 -0.63900
H 	H 	0.71540 0.37743 0.78860 0.03700
H 	H 	0.72344 0.42086 0.16426 0.08000
O 	O 	0.71978 0.48220 0.96050 -0.37800
H 	H 	0.72368 0.30718 0.65740 0.03300
H 	H 	0.72794 0.51779 0.50669 0.08500
C 	C 	0.73244 0.28778 0.21959 -0.04000
H 	H 	0.73027 0.15674 0.04452 0.04900
C 	C 	0.73014 0.73236 0.97186 -0.08300
H 	H 	0.73853 0.24921 0.27122 0.03900
H 	H 	0.74055 0.38694 0.72217 0.03600
Cu	Cu	0.74384 0.30067 0.46462 0.92700
H 	H 	0.74479 0.34005 0.53537 0.17200
C 	C 	0.74857 0.65918 0.93115 0.07600
N 	N 	0.74822 0.60426 0.93519 -0.15100
O 	O 	0.74979 0.29382 0.41037 -0.36800
N 	N 	0.99815 0.98747 0.96260 -0.13100
C 	C 	0.97832 0.07260 0.00507 0.10300
C 	C 	0.93435 0.96133 0.97241 0.09600
N 	N 	0.92482 0.00389 0.99396 -0.13300
C 	C 	0.95181 0.96725 0.46118 0.09900
N 	N 	0.99327 0.89650 0.42452 -0.12900
C 	C 	0.93676 0.86269 0.44226 0.09700
N 	N 	0.91575 0.89805 0.46041 -0.13200
O 	O 	0.76215 0.30455 0.97895 -0.43500
C 	C 	0.75115 0.26845 0.00656 0.26600
H 	H 	0.76340 0.43436 0.02369 0.16600
O 	O 	0.79600 0.40470 0.47422 -0.35700
O 	O 	0.78740 0.25093 0.46704 -0.36200
C 	C 	0.76709 0.43377 0.48668 0.25700
C 	C 	0.75440 0.18957 0.47681 0.26100
H 	H 	0.76216 0.27362 0.20574 0.04000
H 	H 	0.75672 0.28340 0.33732 0.08600
C 	C 	0.82458 0.60700 0.49848 0.07500
C 	C 	0.80035 0.64493 0.48734 -0.08800
C 	C 	0.83146 0.68683 0.45976 0.02000
C 	C 	0.88657 0.69312 0.44499 0.07300
C 	C 	0.91301 0.65790 0.45749 -0.08200
C 	C 	0.88153 0.61525 0.48475 0.01000
N 	N 	0.78153 0.54295 0.50647 -0.15300
C 	C 	0.81014 0.50985 0.49774 -0.00200
C 	C 	0.87270 0.55355 0.48460 -0.04600
N 	N 	0.92661 0.75425 0.43337 -0.16300
C 	C 	0.89807 0.78766 0.44115 0.05600
C 	C 	0.83892 0.74758 0.45784 -0.07400
H 	H 	0.75705 0.63979 0.49858 0.05300
H 	H 	0.95633 0.66316 0.44619 0.05300
H 	H 	0.89418 0.53553 0.46548 0.05300
H 	H 	0.81937 0.76816 0.47675 0.05500
H 	H 	0.97936 0.77897 0.43099 0.08800
C 	C 	0.86961 0.14632 0.49889 0.07300
C 	C 	0.93099 0.15112 0.49785 -0.08600
C 	C 	0.92854 0.09327 0.50374 0.01900
C 	C 	0.86473 0.02985 0.50405 0.07100
C 	C 	0.80163 0.02316 0.49976 -0.08000
C 	C 	0.80661 0.08389 0.50057 0.00300
N 	N 	0.85727 0.18752 0.48310 -0.15200
C 	C 	0.78647 0.15286 0.47578 -0.00900
C 	C 	0.75332 0.08692 0.48481 -0.04700
N 	N 	0.86764 0.97730 0.49180 -0.16300
C 	C 	0.93273 0.00668 0.48360 0.05500
C 	C 	0.97198 0.07857 0.49039 -0.06900
H 	H 	0.97718 0.19621 0.49047 0.05400
H 	H 	0.75089 0.97263 0.49383 0.05000
H 	H 	0.89453 0.24104 0.48563 0.08500
H 	H 	0.82359 0.92672 0.47961 0.08700
C 	C 	0.77671 0.78761 0.95404 0.07200
C 	C 	0.80229 0.71670 0.91747 -0.08800
C 	C 	0.81156 0.77950 0.92690 0.02100
N 	N 	0.81470 0.85446 0.97178 -0.16300
C 	C 	0.87375 0.88890 0.95644 0.05600
C 	C 	0.87409 0.84429 0.92862 -0.07400
H 	H 	0.83806 0.71371 0.90215 0.05300
H 	H 	0.92110 0.85338 0.92036 0.05500
H 	H 	0.81043 0.87136 0.99914 0.08600
H 	H 	0.78493 0.59748 0.92657 0.08900
C 	C 	0.86793 0.22285 0.00373 0.07200
C 	C 	0.93622 0.24108 0.00831 -0.08300
C 	C 	0.94989 0.20097 0.02774 0.01700
C 	C 	0.89709 0.14470 0.04214 0.07400
C 	C 	0.82963 0.12871 0.03907 -0.08200
C 	C 	0.81566 0.16741 0.01850 0.00900
N 	N 	0.85387 0.26871 0.00079 -0.15100
C 	C 	0.79396 0.24402 0.01472 -0.00900
C 	C 	0.76790 0.18047 0.02538 -0.04800
N 	N 	0.90759 0.09573 0.04102 -0.16300
C 	C 	0.96609 0.11960 0.02561 0.05200
C 	C 	0.99414 0.18513 0.01737 -0.06500
H 	H 	0.97699 0.28427 0.99670 0.04900
H 	H 	0.78867 0.08558 0.05063 0.05200
H 	H 	0.89050 0.32029 0.99816 0.08100
H 	H 	0.86768 0.04326 0.04022 0.08900
