data_crystal

_cell_length_a 22.98185
_cell_length_b 23.27166
_cell_length_c 17.68670
_cell_angle_alpha 95.49067
_cell_angle_beta  95.49166
_cell_angle_gamma 125.93273

_symmetry_space_group_name_	'P 1'
_symmetry_space_group_name_H-M	'P 1'

loop_
_symmetry_equiv_pos_as_xyz
  x,y,z

loop_
_atom_site_label
_atom_site_type_symbol
_atom_site_fract_x
_atom_site_fract_y
_atom_site_fract_z
_atom_site_charge
C 	C 	0.01701 0.95581 0.94973 -0.07500
C 	C 	0.06628 0.03128 0.96351 0.03600
C 	C 	0.04211 0.07294 0.98329 -0.06900
H 	H 	0.03586 0.92368 0.93507 0.05000
H 	H 	0.08021 0.13146 0.99407 0.04400
C 	C 	0.00726 0.94568 0.44384 -0.07500
C 	C 	0.04432 0.01942 0.44398 0.04400
C 	C 	0.00495 0.04643 0.42651 -0.07800
H 	H 	0.03791 0.92484 0.45714 0.05300
H 	H 	0.03385 0.10369 0.42652 0.05300
C 	C 	0.12296 0.06690 0.45979 -0.02300
C 	C 	0.14213 0.06528 0.96032 -0.02900
C 	C 	0.96851 0.03857 0.98947 0.00800
C 	C 	0.91961 0.96289 0.97614 -0.07000
C 	C 	0.94397 0.92164 0.95649 0.03400
H 	H 	0.86292 0.93627 0.98149 0.04400
C 	C 	0.92828 0.99963 0.40900 0.04100
C 	C 	0.89096 0.92548 0.40892 -0.07700
C 	C 	0.93068 0.89848 0.42611 0.03000
H 	H 	0.83165 0.88912 0.39556 0.05200
Cu	Cu	0.64978 0.24867 0.02442 0.93100
Cu	Cu	0.75476 0.28675 0.89847 0.85300
Cu	Cu	0.67247 0.34032 0.90245 0.88400
Cu	Cu	0.61898 0.36480 0.04001 0.90000
C 	C 	0.64361 0.30698 0.17145 0.19700
O 	O 	0.53838 0.19000 0.00057 -0.34300
C 	C 	0.69869 0.30021 0.75357 0.19200
O 	O 	0.69165 0.35606 0.01467 -0.63000
O 	O 	0.65621 0.24818 0.91422 -0.65400
O 	O 	0.70732 0.21131 0.04801 -0.35900
O 	O 	0.80080 0.30129 0.00039 -0.43300
O 	O 	0.60137 0.32016 0.13406 -0.35300
O 	O 	0.69576 0.43408 0.89311 -0.38200
C 	C 	0.69739 0.47903 0.94664 0.26700
C 	C 	0.50471 0.21111 0.96072 0.26600
O 	O 	0.54295 0.27655 0.94534 -0.40900
O 	O 	0.65842 0.45604 0.00183 -0.37100
O 	O 	0.66045 0.26799 0.13478 -0.32200
C 	C 	0.77467 0.24623 0.03575 0.29600
O 	O 	0.66564 0.32284 0.78970 -0.34300
O 	O 	0.72689 0.27201 0.78915 -0.39700
H 	H 	0.74266 0.39631 0.03971 0.16200
H 	H 	0.61525 0.20538 0.87619 0.17600
Cu	Cu	0.72977 0.32992 0.39665 0.92600
Cu	Cu	0.72603 0.25094 0.54047 0.86400
Cu	Cu	0.63976 0.30385 0.52392 0.89300
Cu	Cu	0.60619 0.35092 0.38548 0.89500
C 	C 	0.65849 0.32227 0.24874 0.19700
O 	O 	0.78445 0.43896 0.40842 -0.36300
C 	C 	0.69835 0.29975 0.67789 0.19100
O 	O 	0.62159 0.28376 0.41240 -0.63800
O 	O 	0.73910 0.33527 0.51005 -0.64100
O 	O 	0.76869 0.27369 0.37482 -0.36800
O 	O 	0.69194 0.19083 0.44239 -0.44500
O 	O 	0.64108 0.36115 0.28483 -0.35400
O 	O 	0.53981 0.26535 0.53159 -0.38300
C 	C 	0.49614 0.27106 0.48407 0.29200
C 	C 	0.76363 0.47236 0.44846 0.30300
O 	O 	0.70084 0.43424 0.47125 -0.39900
O 	O 	0.52207 0.31904 0.43818 -0.39400
O 	O 	0.70140 0.30971 0.28628 -0.32300
C 	C 	0.73678 0.20966 0.39353 0.29300
O 	O 	0.66022 0.31652 0.63773 -0.34100
O 	O 	0.74229 0.28964 0.64662 -0.39400
H 	H 	0.58237 0.23264 0.38827 0.16400
H 	H 	0.77984 0.38224 0.54279 0.17500
C 	C 	0.84602 0.68090 0.43744 -0.00800
C 	C 	0.87151 0.70875 0.37128 -0.03300
C 	C 	0.89474 0.77846 0.36524 -0.03900
C 	C 	0.79681 0.54696 0.44628 -0.11300
C 	C 	0.86496 0.79200 0.49052 -0.04000
C 	C 	0.84171 0.72222 0.49651 -0.03400
C 	C 	0.82060 0.60845 0.44284 0.04400
C 	C 	0.89265 0.82082 0.42540 -0.00000
H 	H 	0.87393 0.67669 0.32483 0.04000
H 	H 	0.91642 0.80040 0.31493 0.04200
H 	H 	0.86363 0.82445 0.53751 0.03900
H 	H 	0.82099 0.70062 0.54731 0.03900
C 	C 	0.82268 0.08993 0.36935 0.03800
C 	C 	0.74962 0.05474 0.37716 -0.07300
C 	C 	0.71958 0.09245 0.37886 0.01400
C 	C 	0.88830 0.02843 0.39303 -0.02300
C 	C 	0.83434 0.19963 0.36017 0.01600
C 	C 	0.86418 0.16168 0.35821 -0.07200
C 	C 	0.85739 0.05531 0.38116 -0.02300
C 	C 	0.76277 0.16607 0.37374 -0.10000
H 	H 	0.71684 0.99896 0.38465 0.04600
H 	H 	0.66366 0.06524 0.38723 0.02800
H 	H 	0.86808 0.25597 0.35490 0.03400
H 	H 	0.92045 0.18897 0.35107 0.04800
C 	C 	0.26741 0.14997 0.48524 0.04000
C 	C 	0.30698 0.22187 0.47525 -0.07100
C 	C 	0.38247 0.26273 0.47851 0.01900
C 	C 	0.37955 0.16072 0.50517 0.01700
C 	C 	0.30401 0.11996 0.50188 -0.07100
C 	C 	0.18884 0.10531 0.47215 -0.02100
C 	C 	0.41886 0.23172 0.49148 -0.09000
H 	H 	0.27906 0.24558 0.46306 0.04800
H 	H 	0.41239 0.31797 0.46949 0.03300
H 	H 	0.40697 0.13626 0.51551 0.02600
H 	H 	0.27369 0.06444 0.51009 0.04700
C 	C 	0.81173 0.70222 0.93333 0.03700
C 	C 	0.83679 0.66395 0.90415 -0.07200
C 	C 	0.79806 0.59035 0.90598 0.01200
C 	C 	0.89515 0.84423 0.94711 -0.02500
C 	C 	0.70748 0.59255 0.96360 0.01300
C 	C 	0.74636 0.66613 0.96176 -0.07200
C 	C 	0.85623 0.77942 0.94015 -0.02600
C 	C 	0.73400 0.55458 0.93725 -0.08500
H 	H 	0.88728 0.69158 0.88189 0.04400
H 	H 	0.81905 0.56174 0.88530 0.02400
H 	H 	0.65734 0.56534 0.98643 0.02800
H 	H 	0.72647 0.69537 0.98400 0.04400
C 	C 	0.88564 0.14955 0.03948 0.04800
C 	C 	0.81316 0.11007 0.05100 -0.07400
C 	C 	0.77808 0.14285 0.05512 0.02000
C 	C 	0.94250 0.08047 0.00858 0.01200
C 	C 	0.88957 0.25616 0.04123 0.01600
C 	C 	0.92438 0.22313 0.03683 -0.07600
C 	C 	0.91781 0.11299 0.02350 -0.03400
C 	C 	0.81525 0.21548 0.04725 -0.09900
H 	H 	0.78315 0.05334 0.05418 0.05300
H 	H 	0.72125 0.11095 0.06123 0.03800
H 	H 	0.91970 0.31272 0.03734 0.02800
H 	H 	0.98078 0.25429 0.02908 0.04900
C 	C 	0.27893 0.11614 0.95481 0.01400
C 	C 	0.31561 0.10191 0.00869 -0.04800
C 	C 	0.38802 0.12847 0.00726 0.03200
C 	C 	0.38625 0.18092 0.89563 0.01200
C 	C 	0.31382 0.15432 0.89726 -0.06600
C 	C 	0.20478 0.08979 0.95755 -0.02000
C 	C 	0.42453 0.16993 0.95200 -0.10700
H 	H 	0.28846 0.07125 0.05250 0.04800
H 	H 	0.41658 0.11935 0.05105 0.03600
H 	H 	0.41328 0.21185 0.85197 0.03200
H 	H 	0.28526 0.16423 0.85441 0.04600
