data_crystal

_cell_length_a 36.19092
_cell_length_b 33.69302
_cell_length_c 48.85133
_cell_angle_alpha 103.43025
_cell_angle_beta  115.67793
_cell_angle_gamma 112.95916

_symmetry_space_group_name_	'P 1'
_symmetry_space_group_name_H-M	'P 1'

loop_
_symmetry_equiv_pos_as_xyz
  x,y,z

loop_
_atom_site_label
_atom_site_type_symbol
_atom_site_fract_x
_atom_site_fract_y
_atom_site_fract_z
_atom_site_charge
Zn	Zn	0.11261 0.10113 0.97361 1.18600
Zn	Zn	0.03296 0.04999 0.89391 1.19600
O 	O 	0.00856 0.02712 0.84347 -0.44000
C 	C 	0.18022 0.09150 0.96292 0.29700
O 	O 	0.13986 0.05849 0.93145 -0.32800
O 	O 	0.04630 0.05963 0.94090 -0.78100
H 	H 	0.06171 0.02009 0.99108 0.15600
Zn	Zn	0.11577 0.10016 0.47149 1.18600
Zn	Zn	0.03233 0.05585 0.39498 1.19700
O 	O 	0.00645 0.03285 0.34422 -0.44600
C 	C 	0.16990 0.08011 0.44944 0.30200
O 	O 	0.17391 0.10338 0.47723 -0.46600
O 	O 	0.12621 0.05140 0.41939 -0.34100
O 	O 	0.04891 0.06483 0.44266 -0.77800
H 	H 	0.06478 0.02357 0.49186 0.15700
H 	H 	0.98704 0.01815 0.64615 0.02900
C 	C 	0.03646 0.03683 0.76718 -0.06500
C 	C 	0.03357 0.03781 0.79494 0.02800
C 	C 	0.06718 0.03407 0.63181 -0.06300
C 	C 	0.06706 0.03451 0.60325 0.02800
H 	H 	0.08872 0.06931 0.60501 0.02500
H 	H 	0.08886 0.06848 0.65540 0.04600
H 	H 	0.05261 0.07075 0.76629 0.04800
H 	H 	0.04780 0.07255 0.81539 0.03300
H 	H 	0.97899 0.01934 0.69395 0.02700
C 	C 	0.00344 0.01134 0.16337 0.00500
H 	H 	0.98622 0.02403 0.14655 0.02300
C 	C 	0.99900 0.01296 0.19058 -0.06800
C 	C 	0.03410 0.04236 0.26749 -0.06300
C 	C 	0.03128 0.04354 0.29531 0.03200
C 	C 	0.06309 0.03539 0.13047 -0.06600
C 	C 	0.06273 0.03440 0.10160 0.02900
H 	H 	0.08397 0.06868 0.10263 0.02400
H 	H 	0.08458 0.07037 0.15357 0.04700
H 	H 	0.05135 0.07637 0.26695 0.04800
H 	H 	0.04666 0.07850 0.31615 0.03200
H 	H 	0.97820 0.02669 0.19451 0.04300
C 	C 	0.21467 0.09030 0.45125 -0.09400
C 	C 	0.21270 0.07918 0.42088 0.02100
H 	H 	0.17775 0.05988 0.39572 0.03900
C 	C 	0.23519 0.07588 0.95127 0.02000
Zn	Zn	0.99253 0.02009 0.98744 1.19600
C 	C 	0.93601 0.03513 0.93608 0.31900
O 	O 	0.02319 0.02517 0.03320 -0.46400
O 	O 	0.95907 0.04827 0.96918 -0.50000
Zn	Zn	0.99798 0.02590 0.49087 1.19700
C 	C 	0.94083 0.04269 0.44135 0.32000
O 	O 	0.02888 0.02883 0.53594 -0.46300
O 	O 	0.96641 0.05644 0.47454 -0.50000
C 	C 	0.84055 0.08646 0.40997 0.05000
C 	C 	0.86949 0.09170 0.39741 -0.08300
C 	C 	0.90010 0.07432 0.40572 0.02500
C 	C 	0.90243 0.05248 0.42710 -0.11400
C 	C 	0.87146 0.04503 0.43804 0.03100
C 	C 	0.84023 0.06140 0.42913 -0.08100
H 	H 	0.92370 0.08000 0.39699 0.00600
H 	H 	0.87320 0.02851 0.45472 0.02700
H 	H 	0.81770 0.05693 0.43872 0.05100
C 	C 	0.83971 0.08304 0.90466 0.04900
C 	C 	0.83067 0.04861 0.91643 -0.08000
C 	C 	0.86029 0.03034 0.92460 0.03000
C 	C 	0.89854 0.04555 0.92037 -0.11400
C 	C 	0.90501 0.07692 0.90591 0.02400
C 	C 	0.87585 0.09595 0.89831 -0.08200
H 	H 	0.80258 0.03819 0.92118 0.05100
H 	H 	0.85532 0.00654 0.93604 0.02800
H 	H 	0.93434 0.08871 0.90241 0.00500
C 	C 	0.27945 0.09352 0.95425 -0.07300
H 	H 	0.28326 0.06859 0.93890 0.05200
H 	H 	0.20527 0.03734 0.93383 0.03400
O 	O 	0.94341 0.01332 0.42005 -0.45900
C 	C 	0.25620 0.09501 0.42302 -0.07300
H 	H 	0.25448 0.08786 0.39955 0.05200
H 	H 	0.16245 0.00156 0.46645 0.03300
C 	C 	0.00074 0.00692 0.69022 -0.02000
O 	O 	0.93998 0.00576 0.91597 -0.46000
O 	O 	0.02848 0.00508 0.47474 -0.88800
C 	C 	0.00520 0.00613 0.66311 -0.02300
H 	H 	0.16438 0.00097 0.96678 0.03500
C 	C 	0.01237 0.00154 0.32783 0.32700
O 	O 	0.02550 0.00071 0.97331 -0.88900
C 	C 	0.22909 0.10827 0.96996 -0.09300
C 	C 	0.81764 0.11048 0.90457 -0.03600
H 	H 	0.86977 0.11086 0.38242 0.04600
C 	C 	0.81723 0.11283 0.40789 -0.03700
O 	O 	0.17684 0.11306 0.98700 -0.46500
C 	C 	0.26033 0.11452 0.48356 0.02100
O 	O 	0.08547 0.11759 0.90786 -0.45500
H 	H 	0.26232 0.12211 0.50713 0.02900
C 	C 	0.30193 0.12184 0.45543 0.04700
O 	O 	0.08402 0.12340 0.40813 -0.45300
H 	H 	0.88287 0.12235 0.88899 0.04700
C 	C 	0.30382 0.13044 0.48561 -0.07500
C 	C 	0.79972 0.13364 0.90640 0.00000
C 	C 	0.79857 0.13551 0.40842 0.00100
H 	H 	0.33907 0.15070 0.51074 0.04900
C 	C 	0.31788 0.14356 0.97597 0.04700
C 	C 	0.34690 0.14484 0.45789 -0.03200
C 	C 	0.26872 0.15782 0.99317 0.02100
C 	C 	0.11111 0.15922 0.93682 0.31400
O 	O 	0.12183 0.15936 0.96634 -0.46000
O 	O 	0.12989 0.16149 0.46787 -0.46200
C 	C 	0.36021 0.16314 0.97504 -0.03200
C 	C 	0.11717 0.16373 0.43883 0.31700
C 	C 	0.77939 0.16081 0.91047 -0.00800
C 	C 	0.77776 0.16252 0.41139 -0.00800
C 	C 	0.38395 0.16484 0.45931 0.00100
C 	C 	0.31291 0.17537 0.99609 -0.07400
H 	H 	0.13814 0.17848 0.89494 0.03600
C 	C 	0.39575 0.17976 0.97438 0.00100
H 	H 	0.46856 0.17946 0.91475 0.04300
H 	H 	0.26463 0.18318 0.00787 0.03100
C 	C 	0.76252 0.18399 0.91530 -0.02400
C 	C 	0.76077 0.18582 0.41563 -0.02400
C 	C 	0.42653 0.18884 0.46019 -0.00600
H 	H 	0.08322 0.19186 0.39052 0.02900
C 	C 	0.43662 0.19951 0.97283 -0.00600
C 	C 	0.13351 0.20671 0.93712 -0.10000
H 	H 	0.71229 0.21323 0.37311 0.04200
C 	C 	0.14612 0.21060 0.91394 0.02300
C 	C 	0.14355 0.21177 0.44076 -0.10000
H 	H 	0.34263 0.21405 0.01311 0.04900
C 	C 	0.46221 0.20964 0.46024 -0.02400
C 	C 	0.50378 0.21318 0.93626 -0.04900
C 	C 	0.47087 0.21639 0.97082 -0.02400
H 	H 	0.71136 0.20951 0.87266 0.04200
C 	C 	0.74316 0.21186 0.92250 0.02500
C 	C 	0.74136 0.21383 0.42239 0.02500
H 	H 	0.53584 0.21579 0.90802 0.03700
C 	C 	0.71677 0.22529 0.39757 -0.04900
C 	C 	0.12062 0.22027 0.41323 0.02400
H 	H 	0.77042 0.22043 0.97397 0.04200
C 	C 	0.71691 0.22213 0.89748 -0.04900
H 	H 	0.21051 0.24301 0.49128 0.02800
H 	H 	0.55444 0.23444 0.50421 0.04300
C 	C 	0.51098 0.23638 0.96760 0.02500
C 	C 	0.54185 0.23375 0.93244 -0.03100
C 	C 	0.75012 0.22825 0.95451 -0.04900
C 	C 	0.19205 0.24920 0.47006 0.02400
C 	C 	0.50396 0.23455 0.45943 0.02600
H 	H 	0.76603 0.22082 0.47326 0.04200
C 	C 	0.74700 0.22955 0.45395 -0.04900
H 	H 	0.63373 0.23718 0.94770 0.05100
C 	C 	0.69777 0.25232 0.40428 -0.03100
H 	H 	0.67858 0.26090 0.38492 0.03700
H 	H 	0.13439 0.24637 0.97943 0.02600
H 	H 	0.63043 0.23991 0.44484 0.05100
C 	C 	0.54992 0.24477 0.48413 -0.04900
C 	C 	0.17033 0.25635 0.91587 -0.07500
C 	C 	0.14441 0.24889 0.96168 0.02200
H 	H 	0.18050 0.25910 0.89821 0.05000
C 	C 	0.59015 0.26806 0.48278 -0.03100
H 	H 	0.62553 0.27560 0.50183 0.03600
C 	C 	0.69753 0.24860 0.90443 -0.03200
H 	H 	0.67708 0.25624 0.88492 0.03700
C 	C 	0.14580 0.26576 0.41514 -0.07600
C 	C 	0.19404 0.30303 0.44447 0.04800
C 	C 	0.21712 0.29462 0.47188 -0.07600
C 	C 	0.21969 0.35014 0.44662 -0.03400
H 	H 	0.12773 0.27204 0.39385 0.05000
C 	C 	0.18199 0.29847 0.94087 0.04700
C 	C 	0.16857 0.29454 0.96353 -0.07600
H 	H 	0.17723 0.32691 0.98280 0.04900
C 	C 	0.62750 0.29940 0.95587 0.03400
C 	C 	0.64496 0.34578 0.95762 -0.07800
C 	C 	0.70138 0.33914 0.94565 -0.07800
C 	C 	0.68400 0.29280 0.94385 0.03400
C 	C 	0.64722 0.27306 0.94910 -0.07800
C 	C 	0.62604 0.30323 0.45401 0.03400
C 	C 	0.64485 0.35013 0.45663 -0.07800
C 	C 	0.70169 0.34300 0.44543 -0.07800
C 	C 	0.68311 0.29623 0.44294 0.03400
C 	C 	0.64531 0.27640 0.44725 -0.07800
H 	H 	0.25447 0.32322 0.49460 0.04900
C 	C 	0.20890 0.34599 0.94393 -0.03300
C 	C 	0.70332 0.26801 0.43587 -0.00700
C 	C 	0.72806 0.25656 0.46069 -0.03200
H 	H 	0.73268 0.26868 0.48520 0.03600
C 	C 	0.58452 0.28119 0.45667 -0.00700
C 	C 	0.49847 0.24822 0.43364 -0.04900
C 	C 	0.53859 0.27143 0.43223 -0.03100
H 	H 	0.46302 0.24052 0.41452 0.04300
H 	H 	0.53385 0.28124 0.41190 0.03600
C 	C 	0.70437 0.26492 0.93647 -0.00700
C 	C 	0.73081 0.25471 0.96150 -0.03200
H 	H 	0.73646 0.26737 0.98635 0.03600
C 	C 	0.55658 0.28007 0.99525 -0.04900
C 	C 	0.59475 0.30067 0.99148 -0.03200
C 	C 	0.58745 0.27766 0.96000 -0.00700
H 	H 	0.56235 0.29824 0.01954 0.04200
H 	H 	0.62993 0.33443 0.01297 0.03600
C 	C 	0.68190 0.36567 0.95250 0.03300
H 	H 	0.62955 0.36608 0.96261 0.05000
H 	H 	0.72982 0.35443 0.94156 0.05100
C 	C 	0.68249 0.36993 0.45215 0.03400
H 	H 	0.62995 0.37092 0.46182 0.05000
H 	H 	0.73076 0.35824 0.44190 0.05100
C 	C 	0.24111 0.38953 0.44839 0.00100
C 	C 	0.23166 0.38605 0.94696 0.00000
H 	H 	0.63044 0.39381 0.40786 0.03600
C 	C 	0.66781 0.41888 0.92713 -0.03200
H 	H 	0.62957 0.38845 0.90735 0.03700
C 	C 	0.66891 0.42384 0.42740 -0.03200
O 	O 	0.02695 0.96924 0.84068 -0.48500
O 	O 	0.02765 0.91088 0.88904 -0.49900
O 	O 	0.07152 0.98023 0.94015 -0.45000
Zn	Zn	0.00572 0.99193 0.92786 1.21700
C 	C 	0.02505 0.98926 0.03867 0.31300
O 	O 	0.01889 0.95283 0.01551 -0.43400
Zn	Zn	0.00180 0.94058 0.86476 1.18300
C 	C 	0.01485 0.99579 0.82752 0.30100
C 	C 	0.06411 0.93863 0.92217 0.30800
O 	O 	0.02495 0.97508 0.34080 -0.48800
O 	O 	0.02501 0.91433 0.38750 -0.49600
O 	O 	0.07109 0.98331 0.43928 -0.45600
Zn	Zn	0.00713 0.99718 0.42924 1.21700
C 	C 	0.02937 0.99172 0.54012 0.31200
O 	O 	0.02241 0.95562 0.51613 -0.43500
Zn	Zn	0.99993 0.94565 0.36461 1.17900
C 	C 	0.06213 0.94123 0.42048 0.31100
C 	C 	0.05614 0.97408 0.67984 -0.03900
C 	C 	0.03294 0.98975 0.65785 -0.00800
C 	C 	0.02415 0.99149 0.71237 -0.01400
C 	C 	0.05188 0.97507 0.70707 -0.03500
H 	H 	0.07026 0.96327 0.72412 0.03800
C 	C 	0.01944 0.99229 0.74100 0.03400
C 	C 	0.01389 0.99428 0.79684 -0.10100
C 	C 	0.99597 0.94962 0.77028 0.01200
C 	C 	0.99861 0.94862 0.74245 -0.08100
C 	C 	0.03799 0.98951 0.62951 0.02200
C 	C 	0.03749 0.99035 0.57204 -0.10800
C 	C 	0.01051 0.94547 0.57045 0.02800
C 	C 	0.01073 0.94508 0.59908 -0.06200
H 	H 	0.98479 0.91397 0.72214 0.04300
H 	H 	0.98027 0.91574 0.77130 0.01000
C 	C 	0.02982 0.99312 0.15777 -0.02100
C 	C 	0.02103 0.99649 0.21246 0.01200
C 	C 	0.01577 0.99751 0.24089 0.02600
C 	C 	0.01038 0.99989 0.29683 -0.11300
C 	C 	0.03443 0.99149 0.12909 0.02700
C 	C 	0.03347 0.98947 0.07102 -0.10800
C 	C 	0.19678 0.88288 0.45985 -0.03400
C 	C 	0.16335 0.89833 0.45400 0.04500
C 	C 	0.11230 0.86288 0.43345 -0.07700
C 	C 	0.07923 0.87719 0.42402 0.02200
C 	C 	0.09698 0.92715 0.43513 -0.11100
C 	C 	0.14825 0.96286 0.45733 0.01100
C 	C 	0.18133 0.94843 0.46651 -0.07400
H 	H 	0.09815 0.82411 0.42394 0.05000
H 	H 	0.03979 0.84935 0.40737 0.02500
H 	H 	0.22079 0.97610 0.48261 0.04700
C 	C 	0.10009 0.92621 0.93786 -0.11000
C 	C 	0.08357 0.87677 0.92837 0.02100
C 	C 	0.11752 0.86358 0.93819 -0.07700
C 	C 	0.16824 0.89962 0.95751 0.04500
C 	C 	0.18509 0.94933 0.96856 -0.07400
C 	C 	0.15112 0.96266 0.95897 0.01000
C 	C 	0.20236 0.88505 0.96355 -0.03400
H 	H 	0.04433 0.84841 0.91254 0.02400
H 	H 	0.10427 0.82514 0.92986 0.05000
H 	H 	0.22429 0.97748 0.98371 0.04600
C 	C 	0.44967 0.73389 0.97648 0.03300
C 	C 	0.42918 0.76132 0.97856 -0.07800
C 	C 	0.38611 0.74179 0.97736 0.03300
C 	C 	0.36365 0.69478 0.97424 -0.07800
C 	C 	0.38408 0.66727 0.97229 0.03300
C 	C 	0.42714 0.68692 0.97346 -0.07800
H 	H 	0.44638 0.79751 0.98071 0.05000
H 	H 	0.32998 0.67935 0.97283 0.05100
H 	H 	0.44302 0.66575 0.97200 0.05000
C 	C 	0.44822 0.73760 0.47319 0.03300
C 	C 	0.42528 0.76268 0.47435 -0.07800
C 	C 	0.38128 0.74037 0.47179 0.03300
C 	C 	0.36063 0.69323 0.46866 -0.07800
C 	C 	0.38337 0.66799 0.46750 0.03300
C 	C 	0.42733 0.69033 0.46995 -0.07800
H 	H 	0.44113 0.79902 0.47658 0.05000
H 	H 	0.32666 0.67601 0.46677 0.05100
H 	H 	0.44461 0.67062 0.46859 0.05000
O 	O 	0.98621 0.98286 0.88210 -0.88300
Zn	Zn	0.90085 0.89961 0.89935 1.17400
Zn	Zn	0.99203 0.93312 0.96411 1.18600
C 	C 	0.90647 0.83135 0.92863 0.32100
C 	C 	0.87681 0.93145 0.94341 0.31600
O 	O 	0.95488 0.86301 0.95094 -0.46400
O 	O 	0.88005 0.83686 0.90275 -0.46500
O 	O 	0.86155 0.91531 0.91095 -0.48500
O 	O 	0.92219 0.94637 0.96741 -0.48000
O 	O 	0.96463 0.92414 0.91487 -0.80500
H 	H 	0.95111 0.97100 0.86631 0.14900
O 	O 	0.98605 0.98870 0.38343 -0.88200
Zn	Zn	0.90209 0.90641 0.40155 1.17500
Zn	Zn	0.99400 0.93719 0.46473 1.18600
C 	C 	0.90719 0.83664 0.42952 0.32100
C 	C 	0.88130 0.94013 0.44737 0.31600
O 	O 	0.95584 0.86695 0.45069 -0.46600
O 	O 	0.88038 0.84342 0.40467 -0.46400
O 	O 	0.86491 0.92396 0.41469 -0.48400
O 	O 	0.92631 0.95324 0.47055 -0.47900
O 	O 	0.96515 0.92942 0.41577 -0.80600
H 	H 	0.95091 0.97714 0.36836 0.14600
H 	H 	0.98754 0.91114 0.54654 0.02300
H 	H 	0.98835 0.91045 0.59720 0.03800
H 	H 	0.07766 0.96143 0.67596 0.03800
C 	C 	0.05183 0.97662 0.17960 -0.02800
C 	C 	0.04759 0.97842 0.20691 -0.04800
H 	H 	0.06495 0.96585 0.22378 0.04100
C 	C 	0.99088 0.95492 0.26974 0.01500
C 	C 	0.99343 0.95372 0.24186 -0.08000
C 	C 	0.00702 0.94529 0.07037 0.03000
C 	C 	0.00746 0.94632 0.09930 -0.06400
H 	H 	0.98428 0.91037 0.04694 0.02300
H 	H 	0.98551 0.91220 0.09814 0.03900
H 	H 	0.97853 0.91883 0.22119 0.04200
H 	H 	0.97422 0.92095 0.27047 0.00800
H 	H 	0.07235 0.96260 0.17549 0.03500
C 	C 	0.26617 0.43585 0.45067 -0.00700
C 	C 	0.28756 0.47557 0.45283 -0.02400
C 	C 	0.31300 0.52323 0.45564 0.02500
C 	C 	0.28962 0.53248 0.42883 -0.04900
C 	C 	0.31315 0.57946 0.43233 -0.03100
C 	C 	0.36025 0.61755 0.46272 -0.00700
C 	C 	0.38408 0.60794 0.48923 -0.03200
C 	C 	0.36049 0.56091 0.48569 -0.04900
H 	H 	0.25299 0.50350 0.40547 0.04300
H 	H 	0.29457 0.58645 0.41164 0.03700
H 	H 	0.42041 0.63708 0.51279 0.03500
H 	H 	0.37885 0.55399 0.50649 0.04200
C 	C 	0.49275 0.75988 0.47361 -0.00700
C 	C 	0.53777 0.77111 0.50080 -0.03200
C 	C 	0.58001 0.79268 0.50127 -0.04900
C 	C 	0.57747 0.80310 0.47458 0.02400
C 	C 	0.53254 0.79184 0.44740 -0.04900
C 	C 	0.49032 0.77027 0.44689 -0.03200
C 	C 	0.62077 0.82488 0.47479 -0.02500
C 	C 	0.65646 0.84309 0.47436 -0.00900
C 	C 	0.69748 0.86398 0.47298 -0.00100
C 	C 	0.73175 0.88131 0.47097 -0.03500
C 	C 	0.77168 0.90122 0.46746 0.04700
C 	C 	0.81623 0.90683 0.48973 -0.07700
C 	C 	0.85313 0.92172 0.48420 0.02200
C 	C 	0.84551 0.93076 0.45614 -0.10600
C 	C 	0.80150 0.92680 0.43469 0.02200
C 	C 	0.76484 0.91216 0.44037 -0.07800
H 	H 	0.54007 0.76336 0.52159 0.03500
H 	H 	0.61461 0.80123 0.52234 0.04000
H 	H 	0.53027 0.79968 0.42664 0.04200
H 	H 	0.45571 0.76154 0.42571 0.03700
H 	H 	0.82188 0.89867 0.51084 0.04800
H 	H 	0.88686 0.92467 0.50105 0.03000
H 	H 	0.79532 0.93423 0.41323 0.02700
H 	H 	0.73065 0.90829 0.42323 0.04800
C 	C 	0.35534 0.76525 0.47055 -0.00700
C 	C 	0.30868 0.74491 0.44030 -0.03200
C 	C 	0.28319 0.76740 0.43944 -0.04900
C 	C 	0.30413 0.81037 0.46878 0.02500
C 	C 	0.35103 0.83117 0.49890 -0.04900
C 	C 	0.37661 0.80869 0.49979 -0.03200
C 	C 	0.27686 0.83236 0.46809 -0.02400
C 	C 	0.25291 0.84967 0.46652 -0.00800
C 	C 	0.22336 0.86837 0.46352 -0.00000
H 	H 	0.29209 0.71156 0.41755 0.03700
H 	H 	0.24701 0.75120 0.41604 0.04300
H 	H 	0.36749 0.86444 0.52166 0.04100
H 	H 	0.41263 0.82468 0.52326 0.03600
C 	C 	0.35985 0.61753 0.96853 -0.00700
C 	C 	0.33965 0.57611 0.93832 -0.03100
C 	C 	0.31427 0.52880 0.93394 -0.04900
C 	C 	0.30895 0.52263 0.95971 0.02500
C 	C 	0.32972 0.56397 0.99009 -0.04900
C 	C 	0.35510 0.61127 0.99451 -0.03200
C 	C 	0.28142 0.47385 0.95475 -0.02400
C 	C 	0.25848 0.43328 0.95097 -0.00700
H 	H 	0.34299 0.58054 0.91807 0.03600
H 	H 	0.29840 0.49702 0.91041 0.04300
H 	H 	0.32588 0.55949 0.01017 0.04200
H 	H 	0.37072 0.64300 0.01797 0.03600
C 	C 	0.49397 0.75385 0.97646 -0.00700
C 	C 	0.53860 0.79779 0.00512 -0.03200
C 	C 	0.57985 0.81791 0.00438 -0.04900
C 	C 	0.57678 0.79424 0.97504 0.02400
C 	C 	0.53248 0.75001 0.94661 -0.04900
C 	C 	0.49119 0.72987 0.94729 -0.03200
C 	C 	0.61863 0.81595 0.97366 -0.02500
C 	C 	0.65330 0.83362 0.97210 -0.00900
C 	C 	0.69329 0.85389 0.96959 -0.00100
C 	C 	0.72682 0.87071 0.96679 -0.03500
C 	C 	0.76603 0.89007 0.96253 0.04700
C 	C 	0.81284 0.90163 0.98700 -0.07700
C 	C 	0.84974 0.91692 0.98150 0.02200
C 	C 	0.83990 0.92045 0.95126 -0.10500
C 	C 	0.79335 0.91025 0.92736 0.02300
C 	C 	0.75666 0.89517 0.93301 -0.07800
H 	H 	0.54119 0.81647 0.02781 0.03500
H 	H 	0.61401 0.85206 0.02648 0.04100
H 	H 	0.52985 0.73149 0.92385 0.04200
H 	H 	0.45690 0.69604 0.92501 0.03600
H 	H 	0.82042 0.89799 0.00999 0.04800
H 	H 	0.88543 0.92478 0.00028 0.03100
H 	H 	0.78534 0.91340 0.90417 0.02700
H 	H 	0.72067 0.88664 0.91411 0.04800
C 	C 	0.22975 0.87141 0.96808 -0.00100
C 	C 	0.26045 0.85390 0.97220 -0.00800
C 	C 	0.28562 0.83783 0.97486 -0.02400
C 	C 	0.31456 0.81742 0.97712 0.02400
C 	C 	0.33312 0.80674 0.00415 -0.04900
C 	C 	0.35757 0.78308 0.00470 -0.03200
C 	C 	0.36346 0.76985 0.97815 -0.00700
C 	C 	0.34581 0.78159 0.95154 -0.03200
C 	C 	0.32146 0.80531 0.95105 -0.04900
H 	H 	0.32796 0.81602 0.02440 0.04200
H 	H 	0.37134 0.77447 0.02548 0.03600
H 	H 	0.35011 0.77148 0.93091 0.03700
H 	H 	0.30718 0.81343 0.93007 0.04200
C 	C 	0.70053 0.41803 0.45312 -0.00700
C 	C 	0.75026 0.45720 0.47833 -0.03200
C 	C 	0.76865 0.50117 0.47705 -0.05000
C 	C 	0.73744 0.50626 0.45062 0.02400
C 	C 	0.68735 0.46786 0.42616 -0.04900
C 	C 	0.75750 0.54959 0.44733 -0.02500
C 	C 	0.77469 0.58603 0.44483 -0.00900
C 	C 	0.79549 0.62854 0.44191 -0.00000
C 	C 	0.81384 0.66486 0.43955 -0.03600
C 	C 	0.83651 0.70833 0.43704 0.04800
C 	C 	0.87991 0.75175 0.46676 -0.07800
C 	C 	0.90300 0.79358 0.46425 0.02400
C 	C 	0.88285 0.79226 0.43191 -0.10400
C 	C 	0.83907 0.74875 0.40217 0.02500
C 	C 	0.81604 0.70691 0.40476 -0.07900
H 	H 	0.77484 0.45316 0.49844 0.03600
H 	H 	0.80736 0.53086 0.49616 0.04100
H 	H 	0.66297 0.47166 0.40574 0.04200
H 	H 	0.89585 0.75308 0.49181 0.04800
H 	H 	0.93635 0.82710 0.48747 0.02900
H 	H 	0.82318 0.74716 0.37705 0.02400
H 	H 	0.78250 0.67337 0.38165 0.04800
C 	C 	0.69938 0.41373 0.95340 -0.00700
C 	C 	0.74880 0.45341 0.97892 -0.03200
C 	C 	0.76700 0.49722 0.97740 -0.04900
C 	C 	0.73592 0.50163 0.95040 0.02400
C 	C 	0.68606 0.46273 0.92564 -0.04900
C 	C 	0.75597 0.54474 0.94686 -0.02500
C 	C 	0.77326 0.58104 0.94421 -0.00900
C 	C 	0.79423 0.62343 0.94117 -0.00000
C 	C 	0.81275 0.65965 0.93874 -0.03600
C 	C 	0.83560 0.70302 0.93615 0.04800
C 	C 	0.87745 0.74721 0.96612 -0.07700
C 	C 	0.90067 0.78902 0.96362 0.02400
C 	C 	0.88220 0.78693 0.93104 -0.10300
C 	C 	0.84001 0.74263 0.90102 0.02500
C 	C 	0.81686 0.70081 0.90361 -0.07900
H 	H 	0.77335 0.44987 0.99943 0.03600
H 	H 	0.80552 0.52729 0.99675 0.04100
H 	H 	0.66176 0.46599 0.90479 0.04200
H 	H 	0.89207 0.74917 0.99136 0.04800
H 	H 	0.93273 0.82314 0.98702 0.03000
H 	H 	0.82544 0.74043 0.87572 0.02400
H 	H 	0.78455 0.66668 0.88031 0.04800
