data_crystal

_cell_length_a 40.39954
_cell_length_b 37.95598
_cell_length_c 30.31705
_cell_angle_alpha 89.95379
_cell_angle_beta  89.94544
_cell_angle_gamma 90.59071

_symmetry_space_group_name_	'P 1'
_symmetry_space_group_name_H-M	'P 1'

loop_
_symmetry_equiv_pos_as_xyz
  x,y,z

loop_
_atom_site_label
_atom_site_type_symbol
_atom_site_fract_x
_atom_site_fract_y
_atom_site_fract_z
_atom_site_charge
Zn	Zn	0.47908 0.49994 0.00740 1.22200
C 	C 	0.50164 0.57050 0.98777 0.33900
O 	O 	0.50882 0.48689 0.05555 -0.47800
O 	O 	0.48018 0.57954 0.01815 -0.45800
O 	O 	0.52559 0.54109 0.07704 -0.49300
C 	C 	0.41963 0.53131 0.03687 0.34400
O 	O 	0.43665 0.52298 0.00163 -0.45100
O 	O 	0.43459 0.53521 0.07504 -0.50700
C 	C 	0.53261 0.50838 0.06758 0.33800
O 	O 	0.44835 0.44824 0.02041 -0.32900
Zn	Zn	0.47930 0.55537 0.07897 1.17000
O 	O 	0.50662 0.53696 0.97911 -0.43000
C 	C 	0.46274 0.43581 0.98563 0.29900
O 	O 	0.48298 0.45742 0.96598 -0.38000
Zn	Zn	0.41531 0.08832 0.02328 1.22200
C 	C 	0.44180 0.08103 0.11128 0.34400
O 	O 	0.36787 0.07517 0.02231 -0.45500
O 	O 	0.42931 0.11130 0.12335 -0.45400
O 	O 	0.36374 0.08056 0.09657 -0.49500
C 	C 	0.42596 0.16212 0.03803 0.34300
O 	O 	0.44083 0.13211 0.03031 -0.45500
O 	O 	0.39744 0.16267 0.05868 -0.51200
C 	C 	0.35089 0.07068 0.05888 0.33100
O 	O 	0.41430 0.10164 0.94671 -0.32500
Zn	Zn	0.38367 0.12695 0.10080 1.17300
O 	O 	0.42931 0.06402 0.07734 -0.44400
C 	C 	0.43083 0.07263 0.94250 0.30400
O 	O 	0.43667 0.05594 0.97873 -0.39100
C 	C 	0.55100 0.01699 0.73701 0.15000
C 	C 	0.57685 0.00595 0.76442 -0.12200
H 	H 	0.59879 0.99450 0.74996 0.07700
C 	C 	0.57430 0.00981 0.81038 0.07700
C 	C 	0.54638 0.02601 0.82853 -0.10800
C 	C 	0.52054 0.03727 0.80112 0.08200
C 	C 	0.52275 0.03232 0.75544 -0.12100
H 	H 	0.50265 0.04045 0.73419 0.07400
N 	N 	0.55332 0.01232 0.69007 -0.18400
C 	C 	0.54040 0.98238 0.67118 0.19800
C 	C 	0.54173 0.97772 0.62513 -0.07400
C 	C 	0.55740 0.00346 0.59887 0.05000
C 	C 	0.56963 0.03443 0.61862 -0.07700
C 	C 	0.56773 0.03823 0.66477 0.19600
C 	C 	0.52636 0.94858 0.60501 0.00700
C 	C 	0.52733 0.94457 0.55930 -0.05500
C 	C 	0.54619 0.96806 0.53285 0.01100
C 	C 	0.55989 0.99873 0.55261 -0.01800
C 	C 	0.57467 0.02546 0.52628 0.00900
C 	C 	0.58218 0.06174 0.59201 0.00700
C 	C 	0.58340 0.05791 0.54629 -0.05500
C 	C 	0.55009 0.96259 0.48669 0.01800
C 	C 	0.56457 0.98947 0.46037 -0.02800
C 	C 	0.57864 0.01989 0.48017 0.01500
O 	O 	0.57984 0.06682 0.68375 -0.20400
O 	O 	0.52669 0.95786 0.69627 -0.20200
H 	H 	0.58992 0.08657 0.60651 0.04300
H 	H 	0.58942 0.08085 0.52665 0.04400
H 	H 	0.51250 0.92959 0.62454 0.04400
H 	H 	0.51190 0.92435 0.54465 0.04500
C 	C 	0.59761 0.04325 0.45367 -0.06000
C 	C 	0.59787 0.03969 0.40786 0.01100
C 	C 	0.58157 0.01112 0.38769 -0.08600
C 	C 	0.56621 0.98522 0.41400 0.06500
C 	C 	0.54118 0.93026 0.46649 -0.05900
C 	C 	0.54140 0.92697 0.42065 0.01100
C 	C 	0.55322 0.95468 0.39410 -0.08300
C 	C 	0.58134 0.00735 0.34148 0.19500
N 	N 	0.56666 0.97839 0.32243 -0.18200
C 	C 	0.55332 0.95187 0.34779 0.19800
C 	C 	0.56501 0.97592 0.27517 0.14900
C 	C 	0.53881 0.99158 0.25235 -0.11600
C 	C 	0.53726 0.98953 0.20624 0.08300
C 	C 	0.56122 0.97027 0.18316 -0.10800
C 	C 	0.58765 0.95488 0.20589 0.08100
C 	C 	0.58967 0.95804 0.25186 -0.11900
O 	O 	0.59496 0.03192 0.31639 -0.20500
O 	O 	0.54013 0.92387 0.32868 -0.20500
H 	H 	0.51999 0.00570 0.27047 0.06900
H 	H 	0.61023 0.94656 0.26952 0.07400
H 	H 	0.61357 0.06302 0.46830 0.04500
H 	H 	0.61172 0.05863 0.38824 0.04200
H 	H 	0.53578 0.90707 0.48596 0.04500
H 	H 	0.53339 0.90230 0.40598 0.04200
H 	H 	0.55959 0.96766 0.14761 0.06300
H 	H 	0.54438 0.02906 0.86400 0.06200
Zn	Zn	0.67736 0.86898 0.97864 1.22200
C 	C 	0.65415 0.85718 0.06782 0.34400
O 	O 	0.72489 0.88126 0.98306 -0.45800
O 	O 	0.66445 0.82456 0.06456 -0.45500
O 	O 	0.73130 0.85631 0.05074 -0.49700
C 	C 	0.66200 0.79563 0.96787 0.34700
O 	O 	0.64922 0.82713 0.97124 -0.45000
O 	O 	0.69231 0.79024 0.98125 -0.51200
C 	C 	0.74083 0.87906 0.02070 0.33100
O 	O 	0.68001 0.87196 0.90065 -0.32700
Zn	Zn	0.70889 0.81298 0.03428 1.17100
O 	O 	0.66386 0.88107 0.03901 -0.44400
C 	C 	0.66426 0.90138 0.90512 0.30500
O 	O 	0.65747 0.91017 0.94536 -0.38800
Zn	Zn	0.09678 0.61751 0.98874 1.22300
C 	C 	0.08498 0.59490 0.07873 0.34400
O 	O 	0.08001 0.66585 0.98076 -0.45200
O 	O 	0.11134 0.61224 0.09224 -0.45500
O 	O 	0.07947 0.67606 0.05439 -0.49500
C 	C 	0.16491 0.61371 0.01548 0.34600
O 	O 	0.13875 0.59513 0.00385 -0.45500
O 	O 	0.16172 0.64606 0.02980 -0.51500
C 	C 	0.07101 0.68529 0.01440 0.33000
O 	O 	0.11420 0.61743 0.91379 -0.32500
Zn	Zn	0.12415 0.66032 0.06523 1.17200
O 	O 	0.07106 0.60311 0.04097 -0.44400
C 	C 	0.08978 0.59539 0.90823 0.30500
O 	O 	0.07245 0.58832 0.94305 -0.39100
C 	C 	0.96766 0.48633 0.25121 0.14900
C 	C 	0.94406 0.46613 0.22826 -0.11900
H 	H 	0.92614 0.45036 0.24642 0.07400
C 	C 	0.94339 0.46662 0.18203 0.08100
C 	C 	0.96587 0.48831 0.15887 -0.10800
C 	C 	0.99010 0.50780 0.18171 0.08200
C 	C 	0.99080 0.50690 0.22789 -0.11800
H 	H 	0.00895 0.52253 0.24575 0.07000
N 	N 	0.96730 0.48709 0.29863 -0.18300
C 	C 	0.98104 0.45989 0.32185 0.19800
C 	C 	0.98198 0.46087 0.36828 -0.08200
C 	C 	0.96982 0.49052 0.39047 0.06200
C 	C 	0.95445 0.51737 0.36630 -0.08200
C 	C 	0.95341 0.51518 0.31996 0.19800
C 	C 	0.99374 0.43217 0.39267 0.01300
C 	C 	0.99442 0.43344 0.43866 -0.05900
C 	C 	0.98614 0.46476 0.46126 0.01600
C 	C 	0.97220 0.49288 0.43701 -0.02900
C 	C 	0.95929 0.52263 0.45904 0.01600
C 	C 	0.93938 0.54531 0.38869 0.01000
C 	C 	0.94069 0.54724 0.43460 -0.05900
C 	C 	0.98986 0.46792 0.50782 0.01800
C 	C 	0.97701 0.49777 0.52973 -0.02900
C 	C 	0.96366 0.52609 0.50537 0.01600
O 	O 	0.93922 0.54033 0.29693 -0.20500
O 	O 	0.99380 0.43294 0.30060 -0.20300
H 	H 	0.92574 0.56511 0.37071 0.04200
H 	H 	0.92579 0.56678 0.45093 0.04500
H 	H 	0.00123 0.40822 0.37618 0.04000
H 	H 	0.99965 0.40944 0.45633 0.04600
C 	C 	0.95643 0.55783 0.52764 -0.05800
C 	C 	0.95716 0.55933 0.57362 0.01000
C 	C 	0.96750 0.53013 0.59826 -0.08100
C 	C 	0.97871 0.49992 0.57632 0.06100
C 	C 	0.00739 0.44271 0.53280 -0.06000
C 	C 	0.00726 0.44405 0.57880 0.00800
C 	C 	0.99229 0.47221 0.60084 -0.08000
C 	C 	0.96766 0.53094 0.64470 0.19800
N 	N 	0.97849 0.50241 0.66822 -0.18400
C 	C 	0.99151 0.47368 0.64724 0.19900
C 	C 	0.97512 0.50213 0.71544 0.15400
C 	C 	0.00272 0.50903 0.74230 -0.12600
C 	C 	0.99949 0.50802 0.78837 0.09000
C 	C 	0.96859 0.50055 0.80743 -0.11200
C 	C 	0.94099 0.49372 0.78075 0.08500
C 	C 	0.94427 0.49453 0.73470 -0.12200
O 	O 	0.95691 0.55901 0.66568 -0.20300
O 	O 	0.00265 0.44701 0.67062 -0.20500
H 	H 	0.02660 0.51453 0.72737 0.07700
H 	H 	0.92296 0.48947 0.71387 0.07500
H 	H 	0.95190 0.58188 0.50964 0.04500
H 	H 	0.95048 0.58364 0.58992 0.04300
H 	H 	0.02258 0.42318 0.51698 0.04500
H 	H 	0.01989 0.42371 0.59716 0.04300
H 	H 	0.96611 0.49976 0.84305 0.06400
H 	H 	0.96393 0.49080 0.12334 0.06100
Zn	Zn	0.83544 0.39046 0.95213 1.22200
C 	C 	0.83161 0.39834 0.85787 0.34400
O 	O 	0.79214 0.40055 0.97885 -0.46200
O 	O 	0.81791 0.36698 0.85402 -0.45200
O 	O 	0.76388 0.39165 0.91492 -0.49300
C 	C 	0.84677 0.31794 0.93090 0.34600
O 	O 	0.85971 0.34978 0.93047 -0.45600
O 	O 	0.81458 0.31339 0.92931 -0.50900
C 	C 	0.76562 0.40515 0.95465 0.33500
O 	O 	0.85718 0.37782 0.02300 -0.32800
Zn	Zn	0.78567 0.34748 0.90123 1.17100
O 	O 	0.83021 0.41513 0.89570 -0.44600
C 	C 	0.87261 0.40783 0.01873 0.30200
O 	O 	0.86739 0.42430 0.98212 -0.38800
Zn	Zn	0.01863 0.03623 0.03514 1.22100
C 	C 	0.03486 0.96239 0.03574 0.33600
O 	O 	0.98285 0.03764 0.07897 -0.47200
O 	O 	0.05482 0.97072 0.06843 -0.45300
O 	O 	0.99443 0.98835 0.11761 -0.49000
C 	C 	0.08397 0.04567 0.06866 0.34800
O 	O 	0.06666 0.03960 0.03289 -0.45100
O 	O 	0.07004 0.04230 0.10754 -0.51200
C 	C 	0.97279 0.00875 0.09862 0.33300
O 	O 	0.01859 0.09811 0.03210 -0.32800
Zn	Zn	0.04068 0.00247 0.12013 1.16900
O 	O 	0.01501 0.98607 0.01860 -0.43200
C 	C 	0.00282 0.09435 0.99517 0.29500
O 	O 	0.99774 0.06201 0.98298 -0.37700
C 	C 	0.94016 0.20736 0.99102 -0.02600
H 	H 	0.95234 0.20949 0.02374 0.03900
C 	C 	0.94454 0.17695 0.95812 0.00100
C 	C 	0.96554 0.14668 0.96791 0.04200
C 	C 	0.90237 0.20575 0.98304 -0.02300
H 	H 	0.88306 0.20710 0.00906 0.03500
C 	C 	0.90700 0.17493 0.95026 -0.03100
H 	H 	0.89188 0.15035 0.94933 0.04000
C 	C 	0.94422 0.23397 0.95264 -0.02600
H 	H 	0.95934 0.25855 0.95362 0.04100
C 	C 	0.90668 0.23195 0.94477 -0.00800
C 	C 	0.88548 0.26268 0.93875 0.05500
C 	C 	0.91100 0.20160 0.91178 -0.02700
H 	H 	0.89876 0.19955 0.87910 0.03600
C 	C 	0.94893 0.20311 0.91981 -0.03000
H 	H 	0.96828 0.20171 0.89386 0.04000
C 	C 	0.86790 0.28795 0.93482 -0.11900
C 	C 	0.98268 0.12236 0.97873 -0.08700
C 	C 	0.85197 0.41266 0.82148 -0.16600
C 	C 	0.86457 0.44551 0.82340 0.03300
C 	C 	0.89209 0.45643 0.79403 -0.03800
C 	C 	0.90851 0.48676 0.80148 -0.06700
H 	H 	0.90083 0.43839 0.76879 0.04500
H 	H 	0.85880 0.39534 0.79449 0.08300
H 	H 	0.90017 0.50434 0.82743 0.05100
H 	H 	0.85637 0.46345 0.84907 0.03900
C 	C 	0.90021 0.41796 0.04769 -0.14600
C 	C 	0.89715 0.41654 0.09168 0.02600
C 	C 	0.92413 0.43011 0.12000 -0.03500
C 	C 	0.91736 0.44661 0.15808 -0.06700
H 	H 	0.94949 0.42916 0.10798 0.04200
H 	H 	0.92241 0.42938 0.03300 0.07900
H 	H 	0.89230 0.44603 0.17120 0.05000
H 	H 	0.87411 0.40737 0.10658 0.03400
C 	C 	0.06012 0.83660 0.03673 -0.03500
H 	H 	0.07558 0.84794 0.06357 0.03100
C 	C 	0.03707 0.85749 0.00629 -0.00500
C 	C 	0.03412 0.89562 0.01217 0.04700
C 	C 	0.07338 0.81661 0.99617 -0.02300
H 	H 	0.09982 0.81086 0.98954 0.03100
C 	C 	0.05029 0.83796 0.96565 -0.02900
H 	H 	0.05755 0.85045 0.93390 0.03900
C 	C 	0.03254 0.80856 0.04289 -0.02600
H 	H 	0.02531 0.79620 0.07473 0.03100
C 	C 	0.04574 0.78892 0.00234 -0.01600
C 	C 	0.05248 0.75108 0.00326 0.05000
C 	C 	0.02263 0.80958 0.97173 -0.02000
H 	H 	0.00725 0.79801 0.94498 0.03700
C 	C 	0.00935 0.82988 0.01247 -0.03500
H 	H 	0.98296 0.83573 0.01921 0.03800
C 	C 	0.05995 0.72058 0.00696 -0.13200
C 	C 	0.03354 0.92657 0.02087 -0.11500
C 	C 	0.07926 0.58344 0.86424 -0.14600
C 	C 	0.06472 0.55176 0.85936 0.02700
C 	C 	0.04448 0.54354 0.81997 -0.03300
C 	C 	0.02869 0.51236 0.81702 -0.07200
H 	H 	0.03955 0.56411 0.79591 0.04500
H 	H 	0.08140 0.60134 0.83636 0.08000
H 	H 	0.03383 0.49185 0.84106 0.05200
H 	H 	0.06510 0.53304 0.88658 0.03600
C 	C 	0.06897 0.56891 0.10816 -0.16500
C 	C 	0.04690 0.54539 0.09231 0.03300
C 	C 	0.02944 0.52029 0.12174 -0.03900
C 	C 	0.01295 0.53158 0.15750 -0.06800
H 	H 	0.02662 0.49311 0.11102 0.04100
H 	H 	0.07544 0.56872 0.14295 0.08000
H 	H 	0.01589 0.55866 0.16861 0.05100
H 	H 	0.04276 0.54337 0.05699 0.03500
C 	C 	0.85088 0.92029 0.08038 -0.03000
H 	H 	0.84832 0.89490 0.09835 0.03300
C 	C 	0.82566 0.93517 0.04751 -0.00500
C 	C 	0.79490 0.91654 0.03619 0.04800
C 	C 	0.85391 0.95711 0.10203 -0.02800
H 	H 	0.85442 0.96239 0.13804 0.03600
C 	C 	0.82820 0.97175 0.06900 -0.03000
H 	H 	0.80696 0.98878 0.07754 0.03900
C 	C 	0.87904 0.92997 0.04781 -0.02700
H 	H 	0.90025 0.91288 0.03925 0.03700
C 	C 	0.88165 0.96655 0.06929 -0.00700
C 	C 	0.91341 0.98293 0.08106 0.05300
C 	C 	0.85649 0.98149 0.03641 -0.02200
H 	H 	0.85913 0.00688 0.01847 0.03500
C 	C 	0.85341 0.94460 0.01477 -0.03300
H 	H 	0.85292 0.93929 0.97877 0.04300
C 	C 	0.94018 0.99530 0.08983 -0.11600
C 	C 	0.77000 0.90003 0.02818 -0.12000
C 	C 	0.64828 0.91863 0.86723 -0.14600
C 	C 	0.63491 0.95071 0.87130 0.02800
C 	C 	0.61356 0.96515 0.83613 -0.03800
C 	C 	0.60103 0.99767 0.83990 -0.05800
H 	H 	0.60630 0.94842 0.80859 0.04700
H 	H 	0.64634 0.90447 0.83617 0.08200
H 	H 	0.60786 0.01398 0.86801 0.04500
H 	H 	0.63845 0.96562 0.90160 0.04000
C 	C 	0.63143 0.86696 0.10360 -0.16700
C 	C 	0.63425 0.89844 0.12339 0.03400
C 	C 	0.60868 0.91056 0.15462 -0.04000
C 	C 	0.61472 0.93814 0.18115 -0.06700
H 	H 	0.58426 0.89819 0.15434 0.04400
H 	H 	0.61230 0.84836 0.11391 0.08100
H 	H 	0.63963 0.94906 0.18374 0.05000
H 	H 	0.65496 0.91585 0.11531 0.03500
C 	C 	0.20729 0.06740 0.09815 -0.03100
H 	H 	0.19846 0.07706 0.13061 0.03200
C 	C 	0.18511 0.05395 0.06051 -0.00700
C 	C 	0.14894 0.05188 0.06309 0.05100
C 	C 	0.22750 0.08926 0.06422 -0.03000
H 	H 	0.23600 0.11694 0.06872 0.02900
C 	C 	0.20479 0.07577 0.02658 -0.02700
H 	H 	0.19389 0.09231 0.00020 0.03700
C 	C 	0.23042 0.03565 0.09085 -0.02900
H 	H 	0.24129 0.01912 0.11725 0.03200
C 	C 	0.25012 0.05746 0.05693 -0.00900
C 	C 	0.28629 0.06034 0.05600 0.04800
C 	C 	0.22798 0.04400 0.01925 -0.03000
H 	H 	0.23685 0.03436 0.98680 0.04100
C 	C 	0.20769 0.02213 0.05322 -0.03200
H 	H 	0.19916 0.99446 0.04874 0.03800
C 	C 	0.31593 0.06412 0.05653 -0.13400
C 	C 	0.11923 0.04958 0.06556 -0.12500
C 	C 	0.44828 0.06349 0.90155 -0.14500
C 	C 	0.46346 0.08850 0.87722 0.02400
C 	C 	0.49161 0.07947 0.84817 -0.03500
C 	C 	0.49009 0.05177 0.82065 -0.06800
H 	H 	0.51440 0.09478 0.85084 0.04200
H 	H 	0.45365 0.03590 0.89559 0.08100
H 	H 	0.46650 0.03877 0.81408 0.05300
H 	H 	0.45933 0.11612 0.88465 0.03800
C 	C 	0.46820 0.06498 0.13779 -0.16500
C 	C 	0.48846 0.04098 0.12005 0.03300
C 	C 	0.51592 0.02605 0.14582 -0.03900
C 	C 	0.50998 0.00692 0.18236 -0.06900
H 	H 	0.54092 0.02834 0.13280 0.04100
H 	H 	0.47197 0.07376 0.17156 0.08200
H 	H 	0.48499 0.00503 0.19557 0.05100
H 	H 	0.48650 0.03435 0.08528 0.03400
C 	C 	0.49085 0.30147 0.98162 -0.02800
H 	H 	0.51719 0.30768 0.97426 0.03700
C 	C 	0.46263 0.32832 0.98293 0.00300
C 	C 	0.46478 0.36672 0.97856 0.04100
C 	C 	0.46820 0.27611 0.95454 -0.02800
H 	H 	0.47589 0.26077 0.92518 0.03800
C 	C 	0.44011 0.30374 0.95579 -0.03100
H 	H 	0.42473 0.31180 0.92726 0.04000
C 	C 	0.47751 0.28498 0.02507 -0.03200
H 	H 	0.49283 0.27699 0.05369 0.03600
C 	C 	0.45501 0.26037 0.99796 -0.00200
C 	C 	0.44810 0.22351 0.00937 0.04700
C 	C 	0.42694 0.28739 0.99920 -0.02100
H 	H 	0.40055 0.28140 0.00662 0.03300
C 	C 	0.44946 0.31232 0.02620 -0.03500
H 	H 	0.44167 0.32744 0.05572 0.03900
C 	C 	0.43954 0.19455 0.02136 -0.11900
C 	C 	0.46468 0.39845 0.97934 -0.09200
C 	C 	0.29758 0.55972 0.06492 -0.03000
H 	H 	0.30405 0.55540 0.10008 0.03400
C 	C 	0.32120 0.55533 0.02562 -0.00700
C 	C 	0.35610 0.54572 0.02968 0.05100
C 	C 	0.27038 0.53946 0.03897 -0.03000
H 	H 	0.25383 0.51863 0.05266 0.03700
C 	C 	0.29459 0.53487 0.99968 -0.02400
H 	H 	0.29863 0.51006 0.98115 0.04000
C 	C 	0.28568 0.59487 0.04480 -0.02700
H 	H 	0.28174 0.61969 0.06336 0.03100
C 	C 	0.25900 0.57448 0.01890 -0.01000
C 	C 	0.22474 0.58658 0.01611 0.05300
C 	C 	0.28261 0.57010 0.97958 -0.02200
H 	H 	0.27612 0.57447 0.94443 0.03900
C 	C 	0.30976 0.59033 0.00556 -0.03500
H 	H 	0.32627 0.61121 0.99189 0.04000
C 	C 	0.19708 0.59810 0.01504 -0.12300
C 	C 	0.38501 0.53874 0.03307 -0.12000
C 	C 	0.65457 0.46429 0.06474 -0.03200
H 	H 	0.65472 0.46525 0.10134 0.03600
C 	C 	0.62593 0.47606 0.03504 -0.00100
C 	C 	0.59369 0.48916 0.04953 0.05000
C 	C 	0.67924 0.48400 0.03388 -0.02300
H 	H 	0.70027 0.50092 0.04477 0.03500
C 	C 	0.65003 0.49600 0.00446 -0.03800
H 	H 	0.64644 0.52306 0.99151 0.04200
C 	C 	0.65802 0.43058 0.03633 -0.02400
H 	H 	0.66155 0.40350 0.04925 0.03200
C 	C 	0.68214 0.45049 0.00575 -0.01700
C 	C 	0.71271 0.43531 0.98835 0.05600
C 	C 	0.65345 0.46228 0.97615 -0.01600
H 	H 	0.65321 0.46132 0.93955 0.03500
C 	C 	0.62895 0.44257 0.00691 -0.03900
H 	H 	0.60799 0.42558 0.99593 0.04300
C 	C 	0.73718 0.42196 0.97325 -0.12500
C 	C 	0.56625 0.49866 0.05919 -0.12100
C 	C 	0.56053 0.68400 0.98666 -0.02600
H 	H 	0.54147 0.68700 0.01277 0.03000
C 	C 	0.56450 0.65164 0.95670 -0.00600
C 	C 	0.54283 0.62081 0.96250 0.05100
C 	C 	0.56474 0.70824 0.94597 -0.02800
H 	H 	0.54955 0.73171 0.93851 0.04000
C 	C 	0.56840 0.67542 0.91592 -0.02700
H 	H 	0.55590 0.67127 0.88372 0.03900
C 	C 	0.59831 0.68460 0.99422 -0.02600
H 	H 	0.61071 0.68862 0.02653 0.02800
C 	C 	0.60233 0.70848 0.95358 -0.00800
C 	C 	0.62334 0.74015 0.95518 0.05300
C 	C 	0.60645 0.67622 0.92351 -0.02800
H 	H 	0.62560 0.67338 0.89748 0.03700
C 	C 	0.60209 0.65190 0.96432 -0.03000
H 	H 	0.61728 0.62844 0.97189 0.03700
C 	C 	0.64079 0.76584 0.95954 -0.12300
C 	C 	0.52433 0.59680 0.97165 -0.11700
