data_crystal

_cell_length_a 20.42133
_cell_length_b 21.11241
_cell_length_c 38.61748
_cell_angle_alpha 60.76838
_cell_angle_beta  118.97941
_cell_angle_gamma 133.31109

_symmetry_space_group_name_	'P 1'
_symmetry_space_group_name_H-M	'P 1'

loop_
_symmetry_equiv_pos_as_xyz
  x,y,z

loop_
_atom_site_label
_atom_site_type_symbol
_atom_site_fract_x
_atom_site_fract_y
_atom_site_fract_z
_atom_site_charge
C 	C 	0.29934 0.68524 0.14734 0.11900
N 	N 	0.23166 0.60319 0.13804 -0.13000
C 	C 	0.25624 0.55531 0.13971 0.12300
N 	N 	0.34667 0.59030 0.14944 -0.13500
N 	N 	0.38955 0.71606 0.15958 -0.13100
C 	C 	0.29495 0.64074 0.66936 0.12100
N 	N 	0.38911 0.69183 0.67977 -0.13100
N 	N 	0.38449 0.57480 0.68360 -0.13200
C 	C 	0.29133 0.52533 0.67060 0.12300
N 	N 	0.24592 0.55828 0.66328 -0.13300
Co	Co	0.03657 0.03633 0.02525 1.17500
Co	Co	0.10346 0.93657 0.02297 1.17200
C 	C 	0.21691 0.13306 0.01115 0.30300
O 	O 	0.01767 0.07178 0.18488 -0.37700
C 	C 	0.03451 0.01145 0.20795 0.22900
O 	O 	0.00953 0.11829 0.01881 -0.46300
C 	C 	0.03915 0.22139 0.10083 0.30300
C 	C 	0.19966 0.91428 0.10911 0.29200
O 	O 	0.04237 0.97459 0.19158 -0.34200
O 	O 	0.21399 0.96826 0.07295 -0.38200
O 	O 	0.15083 0.90689 0.12601 -0.37100
O 	O 	0.06367 0.19052 0.09010 -0.38800
O 	O 	0.04314 0.94844 0.04877 -0.74400
O 	O 	0.16997 0.07123 0.99190 -0.40700
O 	O 	0.17714 0.12729 0.03196 -0.40800
Co	Co	0.02346 0.09008 0.57370 1.18500
Co	Co	0.07072 0.00796 0.54132 1.17600
Co	Co	0.04324 0.84189 0.53491 1.17300
C 	C 	0.23111 0.00989 0.55241 0.26500
O 	O 	0.03046 0.07458 0.68468 -0.37900
C 	C 	0.02605 0.00132 0.70805 0.22400
O 	O 	0.09348 0.12123 0.53775 -0.46200
C 	C 	0.11406 0.23179 0.61227 0.30700
C 	C 	0.07820 0.75955 0.62360 0.30200
O 	O 	0.02744 0.95628 0.69361 -0.34800
O 	O 	0.02988 0.74007 0.58805 -0.39900
O 	O 	0.07895 0.81260 0.63278 -0.38300
O 	O 	0.02913 0.20260 0.60501 -0.41200
O 	O 	0.13037 0.18711 0.60674 -0.39300
O 	O 	0.02181 0.89722 0.55754 -0.74900
O 	O 	0.18333 0.92254 0.55863 -0.36600
O 	O 	0.20472 0.04400 0.55992 -0.39300
C 	C 	0.06968 0.02005 0.81369 -0.03000
C 	C 	0.08570 0.06876 0.83532 -0.03700
S 	S 	0.12164 0.06472 0.77733 0.01200
C 	C 	0.04161 0.98232 0.75248 -0.00300
H 	H 	0.15152 0.13292 0.83953 0.05500
H 	H 	0.09896 0.10494 0.90024 0.05700
S 	S 	0.13874 0.08028 0.27598 0.01900
C 	C 	0.05821 0.99523 0.25271 -0.00100
H 	H 	0.17538 0.14865 0.34014 0.04800
C 	C 	0.24398 0.44754 0.65568 -0.00100
C 	C 	0.22738 0.46018 0.61385 -0.04000
C 	C 	0.20374 0.39571 0.59955 0.02300
C 	C 	0.18914 0.31421 0.62671 -0.08000
C 	C 	0.21524 0.30583 0.66881 0.00400
C 	C 	0.23968 0.37047 0.68337 -0.02400
H 	H 	0.23630 0.52185 0.59260 0.05800
H 	H 	0.20734 0.24460 0.69009 0.04600
C 	C 	0.25803 0.35612 0.72672 0.09300
C 	C 	0.18933 0.41129 0.55648 0.07700
N 	N 	0.27268 0.34457 0.76145 -0.10900
N 	N 	0.17771 0.42373 0.52196 -0.10400
C 	C 	0.24584 0.67554 0.66380 0.00100
C 	C 	0.16174 0.61584 0.67566 -0.03900
C 	C 	0.11131 0.64579 0.66835 0.02000
C 	C 	0.14461 0.73634 0.64885 -0.07200
C 	C 	0.23428 0.79801 0.64239 0.00300
C 	C 	0.28286 0.76810 0.64741 -0.02200
H 	H 	0.13501 0.54585 0.69023 0.05900
H 	H 	0.26307 0.86873 0.63001 0.05600
C 	C 	0.36633 0.83176 0.63262 0.09900
C 	C 	0.10458 0.31294 0.10727 -0.07500
C 	C 	0.08308 0.37491 0.08172 0.00900
C 	C 	0.12422 0.45060 0.09378 -0.02300
C 	C 	0.18640 0.46415 0.13226 0.00100
C 	C 	0.20307 0.39901 0.15861 -0.04000
C 	C 	0.16859 0.32821 0.14509 0.01800
H 	H 	0.03206 0.36275 0.05305 0.04500
H 	H 	0.25056 0.40857 0.18834 0.05500
C 	C 	0.20207 0.27353 0.16961 0.08200
C 	C 	0.10198 0.51366 0.06647 0.09900
N 	N 	0.22940 0.23012 0.18918 -0.10600
N 	N 	0.08407 0.56414 0.04458 -0.10900
N 	N 	0.42981 0.77973 0.05343 -0.10500
C 	C 	0.27646 0.74524 0.14049 0.00300
C 	C 	0.19852 0.70927 0.15165 -0.04100
C 	C 	0.17883 0.76580 0.14701 0.02000
C 	C 	0.23567 0.85915 0.12959 -0.07100
C 	C 	0.31766 0.89552 0.12206 0.00600
C 	C 	0.33678 0.83977 0.12587 -0.02300
H 	H 	0.15394 0.63768 0.16448 0.05700
H 	H 	0.36361 0.96746 0.11023 0.05700
C 	C 	0.41706 0.88041 0.11338 0.10600
C 	C 	0.10257 0.72784 0.16162 0.07600
C 	C 	0.32846 0.06370 0.55238 -0.06900
C 	C 	0.39606 0.08594 0.58860 0.00200
C 	C 	0.44315 0.11353 0.52294 -0.03900
C 	C 	0.35192 0.07553 0.51973 0.01200
H 	H 	0.37709 0.07167 0.61469 0.04100
C 	C 	0.28323 0.05028 0.48252 0.06600
N 	N 	0.22893 0.03029 0.45255 -0.11400
C 	C 	0.44441 0.26915 0.98883 -0.03100
C 	C 	0.35721 0.24357 0.98375 0.03200
C 	C 	0.31748 0.19360 0.01756 -0.09600
C 	C 	0.37109 0.18132 0.05688 0.01000
H 	H 	0.34182 0.14561 0.08316 0.04300
C 	C 	0.30770 0.26694 0.94361 0.07800
N 	N 	0.26810 0.28571 0.91145 -0.10500
C 	C 	0.41317 0.67052 0.15884 0.12500
C 	C 	0.43374 0.66060 0.68451 0.12600
C 	C 	0.02063 0.97582 0.46050 0.33000
O 	O 	0.06528 0.93963 0.48048 -0.39200
O 	O 	0.01266 0.00771 0.47935 -0.40300
C 	C 	0.00873 0.95135 0.30985 0.08000
C 	C 	0.09313 0.03488 0.31488 -0.04000
C 	C 	0.11055 0.08317 0.33723 -0.02800
C 	C 	0.04335 0.04223 0.35733 -0.01500
C 	C 	0.06396 0.06364 0.39275 -0.02800
H 	H 	0.13230 0.11771 0.40490 0.05000
N 	N 	0.43310 0.88307 0.62069 -0.10600
C 	C 	0.02604 0.58332 0.68148 0.08200
Co	Co	0.02057 0.88349 0.09536 1.18800
O 	O 	0.04529 0.80292 0.05389 -0.39800
N 	N 	0.04139 0.69727 0.17335 -0.10500
C 	C 	0.03133 0.05238 0.88681 -0.04100
C 	C 	0.01520 0.03021 0.85269 -0.00700
C 	C 	0.45790 0.20583 0.06199 -0.02400
H 	H 	0.46184 0.12667 0.49702 0.05300
C 	C 	0.98912 0.92849 0.27517 -0.06200
C 	C 	0.99542 0.99605 0.41554 -0.05000
N 	N 	0.95043 0.27616 0.99229 -0.09600
H 	H 	0.47431 0.30593 0.96266 0.05600
Co	Co	0.96474 0.07538 0.06775 1.18400
O 	O 	0.95636 0.17044 0.10679 -0.40500
C 	C 	0.47732 0.76910 0.08451 0.10000
N 	N 	0.48167 0.91302 0.10362 -0.10500
C 	C 	0.48705 0.12305 0.59184 -0.02300
C 	C 	0.68462 0.26836 0.02388 0.12000
N 	N 	0.59885 0.23371 0.02389 -0.13500
C 	C 	0.58652 0.27957 0.03236 0.12600
N 	N 	0.65912 0.36103 0.03988 -0.13600
C 	C 	0.74376 0.39924 0.03731 0.12100
N 	N 	0.75730 0.35283 0.02963 -0.13400
C 	C 	0.72933 0.27365 0.52834 0.12000
N 	N 	0.64819 0.20196 0.53994 -0.13700
C 	C 	0.60829 0.21291 0.55427 0.12400
N 	N 	0.65004 0.29488 0.55752 -0.13500
C 	C 	0.72829 0.36708 0.54443 0.12400
N 	N 	0.76774 0.35700 0.52930 -0.13100
Co	Co	0.95107 0.92496 0.13883 1.19000
C 	C 	0.96174 0.74654 0.06018 0.29700
Co	Co	0.89645 0.03848 0.14052 1.16300
O 	O 	0.93627 0.00811 0.11279 -0.77000
O 	O 	0.97953 0.84364 0.14525 -0.45000
O 	O 	0.96223 0.96004 0.07551 -0.56800
C 	C 	0.78266 0.83900 0.16341 0.30900
C 	C 	0.97459 0.96984 0.95122 0.31500
O 	O 	0.83398 0.90932 0.17760 -0.39600
O 	O 	0.81725 0.82865 0.14693 -0.37900
O 	O 	0.98732 0.90712 0.97591 -0.38000
O 	O 	0.97527 0.01682 0.96544 -0.38000
C 	C 	0.79200 0.05599 0.05492 0.28700
O 	O 	0.78141 0.00489 0.09212 -0.39600
O 	O 	0.84163 0.06552 0.03754 -0.37400
O 	O 	0.93562 0.76484 0.07752 -0.37500
Co	Co	0.97677 0.83432 0.59863 1.19000
Co	Co	0.94739 0.92166 0.63701 1.19000
C 	C 	0.85165 0.70504 0.54275 0.29300
Co	Co	0.93306 0.07202 0.63067 1.16600
O 	O 	0.96462 0.02170 0.61060 -0.77100
O 	O 	0.94126 0.81461 0.64572 -0.45500
O 	O 	0.97753 0.95428 0.57899 -0.56600
C 	C 	0.77967 0.87489 0.64648 0.31100
O 	O 	0.83684 0.94649 0.66046 -0.39500
O 	O 	0.80897 0.85367 0.63286 -0.37800
C 	C 	0.87262 0.12033 0.54074 0.29400
O 	O 	0.84146 0.06320 0.57410 -0.38600
O 	O 	0.93691 0.13157 0.53244 -0.36700
O 	O 	0.90201 0.76844 0.51559 -0.38700
O 	O 	0.85957 0.72416 0.57345 -0.36500
C 	C 	0.92952 0.94852 0.84588 0.03300
C 	C 	0.91324 0.90008 0.82399 -0.07200
C 	C 	0.98363 0.93892 0.80645 0.06400
S 	S 	0.87837 0.90368 0.88264 0.04600
C 	C 	0.95795 0.98711 0.90686 -0.04400
C 	C 	0.96753 0.91731 0.77211 -0.05300
H 	H 	0.84733 0.83604 0.81968 0.06200
H 	H 	0.89972 0.86550 0.75833 0.05500
C 	C 	0.95853 0.95899 0.35200 0.04300
C 	C 	0.94122 0.91073 0.32965 -0.08300
S 	S 	0.91376 0.91280 0.39127 0.02800
H 	H 	0.87654 0.84509 0.32684 0.06600
H 	H 	0.92120 0.87402 0.26315 0.06700
C 	C 	0.52664 0.72426 0.67704 0.00200
C 	C 	0.53644 0.77600 0.63709 -0.03900
C 	C 	0.61475 0.81629 0.62526 0.02300
C 	C 	0.68693 0.80940 0.65411 -0.07900
C 	C 	0.67737 0.75780 0.69410 0.01200
C 	C 	0.59816 0.71599 0.70579 -0.02500
H 	H 	0.48029 0.78023 0.61455 0.06100
H 	H 	0.73359 0.75365 0.71660 0.03800
C 	C 	0.59106 0.66539 0.74746 0.09500
C 	C 	0.62013 0.86380 0.58324 0.08400
N 	N 	0.58536 0.62485 0.78085 -0.10800
N 	N 	0.62419 0.90163 0.54953 -0.09200
N 	N 	0.95796 0.53287 0.69229 -0.10300
C 	C 	0.50880 0.71499 0.16005 0.00000
C 	C 	0.56670 0.70148 0.19723 -0.04200
C 	C 	0.65342 0.73151 0.19824 0.02400
C 	C 	0.68362 0.77752 0.16181 -0.08100
C 	C 	0.62283 0.78487 0.12439 0.00900
C 	C 	0.53661 0.75585 0.12334 -0.02200
H 	H 	0.54342 0.66597 0.22527 0.05500
H 	H 	0.64530 0.81886 0.09623 0.05100
C 	C 	0.71071 0.71391 0.23670 0.07700
N 	N 	0.75634 0.69950 0.26754 -0.10900
C 	C 	0.77541 0.25997 0.51513 -0.00200
C 	C 	0.72032 0.19123 0.49514 -0.03900
C 	C 	0.75727 0.15371 0.49600 0.01900
C 	C 	0.84936 0.18482 0.51707 -0.07200
C 	C 	0.90884 0.26680 0.52765 -0.00200
C 	C 	0.87225 0.30272 0.52860 -0.02400
H 	H 	0.64758 0.16329 0.48126 0.05500
H 	H 	0.98234 0.29730 0.53935 0.05300
C 	C 	0.93385 0.37987 0.54540 0.09400
C 	C 	0.70030 0.08290 0.47566 0.08300
N 	N 	0.98348 0.44168 0.55890 -0.11100
N 	N 	0.65467 0.02627 0.45924 -0.10700
C 	C 	0.76505 0.45639 0.54377 -0.00100
C 	C 	0.78437 0.47156 0.58023 -0.04000
C 	C 	0.79587 0.54545 0.57960 0.02200
C 	C 	0.79824 0.61066 0.54261 -0.07500
C 	C 	0.77237 0.59213 0.50588 0.00200
C 	C 	0.75781 0.51667 0.50632 -0.02500
H 	H 	0.78463 0.42254 0.60887 0.06000
H 	H 	0.76899 0.63950 0.47704 0.04800
C 	C 	0.73405 0.50086 0.46811 0.09300
C 	C 	0.79653 0.54931 0.61609 0.09000
N 	N 	0.71502 0.48817 0.43753 -0.10900
N 	N 	0.79662 0.55225 0.64526 -0.10000
C 	C 	0.51208 0.14225 0.55790 -0.00400
C 	C 	0.55478 0.14183 0.63002 0.09000
N 	N 	0.60908 0.15692 0.66059 -0.11200
C 	C 	0.75217 0.10709 0.03341 -0.06800
C 	C 	0.66390 0.06567 0.03622 -0.03100
C 	C 	0.63527 0.11746 0.02711 -0.01400
C 	C 	0.69993 0.21256 0.01975 -0.00600
C 	C 	0.78383 0.25347 0.01211 -0.04100
C 	C 	0.80795 0.20080 0.01701 0.02000
H 	H 	0.61755 0.99302 0.04569 0.07800
H 	H 	0.83028 0.32601 0.00242 0.05700
C 	C 	0.88715 0.24268 0.00337 0.06500
C 	C 	0.53807 0.07323 0.02102 0.09000
N 	N 	0.46008 0.03770 0.01598 -0.11800
C 	C 	0.90389 0.65573 0.05480 -0.07200
C 	C 	0.93190 0.59913 0.08103 0.01100
C 	C 	0.88865 0.51903 0.07244 -0.02500
C 	C 	0.81599 0.49448 0.03748 0.00200
C 	C 	0.79489 0.55560 0.00923 -0.04900
C 	C 	0.83525 0.63377 0.01854 0.01000
H 	H 	0.98838 0.61817 0.10772 0.04400
H 	H 	0.74034 0.53786 0.98174 0.06500
C 	C 	0.80389 0.68978 0.99123 0.09400
C 	C 	0.91821 0.46166 0.10003 0.09700
N 	N 	0.77848 0.73442 0.96938 -0.10200
N 	N 	0.94197 0.41574 0.12212 -0.11200
C 	C 	0.49343 0.24750 0.02759 -0.01300
C 	C 	0.50836 0.18463 0.10237 0.08900
N 	N 	0.54874 0.16758 0.13470 -0.11300
