data_crystal

_cell_length_a 26.13134
_cell_length_b 26.58566
_cell_length_c 26.59947
_cell_angle_alpha 95.43970
_cell_angle_beta  95.44060
_cell_angle_gamma 125.79672

_symmetry_space_group_name_	'P 1'
_symmetry_space_group_name_H-M	'P 1'

loop_
_symmetry_equiv_pos_as_xyz
  x,y,z

loop_
_atom_site_label
_atom_site_type_symbol
_atom_site_fract_x
_atom_site_fract_y
_atom_site_fract_z
_atom_site_charge
C 	C 	0.96515 0.02930 0.99438 0.25900
C 	C 	0.02887 0.06362 0.98673 -0.13400
C 	C 	0.05769 0.03323 0.97977 0.26400
C 	C 	0.02243 0.96836 0.97937 -0.14200
C 	C 	0.95946 0.93427 0.98865 0.24800
C 	C 	0.93090 0.96488 0.99628 -0.13900
H 	H 	0.05595 0.11375 0.98648 0.16300
H 	H 	0.04450 0.94475 0.97308 0.16200
H 	H 	0.88213 0.93866 0.00335 0.16300
C 	C 	0.93359 0.99772 0.44820 0.23000
C 	C 	0.90104 0.93420 0.45312 -0.12400
C 	C 	0.93455 0.90793 0.45711 0.24200
C 	C 	0.00054 0.94542 0.45624 -0.13700
C 	C 	0.03326 0.00906 0.45239 0.26100
C 	C 	0.99977 0.03511 0.44818 -0.12900
H 	H 	0.85005 0.90543 0.45380 0.16100
H 	H 	0.02645 0.92520 0.45890 0.16000
H 	H 	0.02514 0.08436 0.44506 0.16100
Cu	Cu	0.63504 0.24070 0.00073 0.93800
Cu	Cu	0.69625 0.24770 0.89727 0.90100
Cu	Cu	0.68418 0.34626 0.93842 0.91200
Cu	Cu	0.64095 0.36050 0.03523 0.92600
C 	C 	0.64908 0.28547 0.10748 0.28400
O 	O 	0.54160 0.20675 0.99455 -0.30800
C 	C 	0.67270 0.30941 0.82642 0.28700
O 	O 	0.69224 0.33978 0.00925 -0.64100
O 	O 	0.63487 0.25247 0.92827 -0.63000
O 	O 	0.67064 0.19187 0.99932 -0.31100
O 	O 	0.74939 0.25914 0.95773 -0.38600
O 	O 	0.62314 0.31342 0.09337 -0.32900
O 	O 	0.73698 0.43739 0.95340 -0.32600
C 	C 	0.72842 0.47107 0.98644 0.39500
C 	C 	0.52140 0.23749 0.97578 0.38700
O 	O 	0.56334 0.29623 0.97115 -0.34300
O 	O 	0.68199 0.44400 0.01351 -0.31800
O 	O 	0.64915 0.24569 0.07371 -0.31700
C 	C 	0.72682 0.21566 0.98639 0.39500
O 	O 	0.68698 0.35326 0.86531 -0.32900
O 	O 	0.66479 0.25710 0.83386 -0.36900
H 	H 	0.73700 0.36467 0.02826 0.20300
H 	H 	0.59206 0.22912 0.90597 0.21200
Cu	Cu	0.73332 0.33514 0.43266 0.93900
Cu	Cu	0.72945 0.28268 0.53982 0.89800
Cu	Cu	0.63674 0.30551 0.50288 0.91200
Cu	Cu	0.61398 0.33471 0.40131 0.91900
C 	C 	0.68096 0.31490 0.32632 0.29000
O 	O 	0.77141 0.42748 0.43355 -0.30700
C 	C 	0.67925 0.31991 0.61385 0.28800
O 	O 	0.63391 0.28519 0.43098 -0.63800
O 	O 	0.72982 0.34467 0.50661 -0.63200
O 	O 	0.77842 0.29508 0.43403 -0.31300
O 	O 	0.71123 0.22473 0.48095 -0.38500
O 	O 	0.65686 0.34464 0.34087 -0.33400
O 	O 	0.54483 0.26101 0.49612 -0.33200
C 	C 	0.50731 0.26136 0.45934 0.40300
C 	C 	0.74487 0.45263 0.45287 0.37900
O 	O 	0.68544 0.41580 0.46022 -0.34300
O 	O 	0.53082 0.29863 0.42513 -0.32500
O 	O 	0.72035 0.31269 0.35941 -0.31600
C 	C 	0.75333 0.24166 0.45067 0.39500
O 	O 	0.64181 0.32130 0.57765 -0.32700
O 	O 	0.72820 0.32068 0.60392 -0.37000
H 	H 	0.60508 0.23953 0.41608 0.20700
H 	H 	0.75866 0.38825 0.52669 0.21200
C 	C 	0.66873 0.32067 0.77317 -0.03900
C 	C 	0.72292 0.37263 0.75814 0.01700
C 	C 	0.72357 0.37598 0.70557 0.01900
C 	C 	0.67142 0.32610 0.66800 -0.03900
C 	C 	0.61463 0.27809 0.68324 0.01600
C 	C 	0.61306 0.27587 0.73591 0.01800
C 	C 	0.77882 0.42127 0.79648 0.13700
C 	C 	0.55854 0.23006 0.64478 0.12600
C 	C 	0.55429 0.22771 0.75184 0.12800
C 	C 	0.77758 0.43082 0.69010 0.13700
N 	N 	0.50740 0.18930 0.76458 -0.05800
N 	N 	0.82065 0.47458 0.67774 -0.05700
N 	N 	0.51379 0.19177 0.61407 -0.05100
N 	N 	0.82346 0.46009 0.82705 -0.04600
C 	C 	0.66161 0.28520 0.16273 -0.03500
C 	C 	0.72172 0.33401 0.19336 0.01500
C 	C 	0.72978 0.34133 0.24741 0.02400
C 	C 	0.67777 0.29940 0.27074 -0.03600
C 	C 	0.61976 0.24694 0.23993 0.01600
C 	C 	0.61157 0.23995 0.18590 0.02200
C 	C 	0.77487 0.37727 0.16923 0.12200
C 	C 	0.56827 0.20076 0.26391 0.11900
C 	C 	0.55123 0.18707 0.15417 0.13900
C 	C 	0.79083 0.39309 0.27902 0.14600
N 	N 	0.50311 0.14492 0.12882 -0.04900
N 	N 	0.83954 0.43439 0.30425 -0.03600
N 	N 	0.52721 0.16394 0.28308 -0.06500
N 	N 	0.81724 0.41176 0.14994 -0.06500
C 	C 	0.89597 0.76288 0.50647 0.25300
C 	C 	0.85049 0.71476 0.46496 -0.00500
C 	C 	0.82825 0.72974 0.42296 0.25300
C 	C 	0.85374 0.79266 0.42128 0.29700
C 	C 	0.90079 0.84104 0.46207 -0.15400
C 	C 	0.92038 0.82561 0.50533 0.29500
C 	C 	0.82770 0.64899 0.46465 0.00600
F 	F 	0.78284 0.68338 0.38334 -0.31900
F 	F 	0.96433 0.87171 0.54569 -0.33900
C 	C 	0.78885 0.61450 0.49933 0.23900
C 	C 	0.76520 0.55149 0.49765 0.31600
C 	C 	0.77859 0.52170 0.46019 -0.19800
C 	C 	0.81922 0.55700 0.42651 0.31800
C 	C 	0.84411 0.62045 0.42914 0.23700
F 	F 	0.77318 0.64178 0.53416 -0.31400
F 	F 	0.83264 0.52926 0.38996 -0.35700
F 	F 	0.72881 0.51919 0.53216 -0.36000
F 	F 	0.88333 0.65400 0.39654 -0.32000
F 	F 	0.91762 0.74897 0.54736 -0.31700
F 	F 	0.83439 0.80686 0.37926 -0.33900
C 	C 	0.86582 0.19663 0.44424 0.23600
C 	C 	0.82229 0.13049 0.43492 0.00900
C 	C 	0.75604 0.10109 0.42579 0.23700
C 	C 	0.73341 0.13756 0.42811 0.32000
C 	C 	0.77693 0.20383 0.43981 -0.20700
C 	C 	0.84328 0.23321 0.44666 0.31800
C 	C 	0.84616 0.09214 0.43734 -0.00400
F 	F 	0.71360 0.03715 0.41571 -0.31800
F 	F 	0.88597 0.29711 0.45805 -0.35800
C 	C 	0.85585 0.07579 0.48413 0.25300
C 	C 	0.88203 0.04263 0.48722 0.29500
C 	C 	0.89868 0.02555 0.44354 -0.14400
C 	C 	0.88717 0.04026 0.39638 0.29600
C 	C 	0.86106 0.07348 0.39332 0.25600
F 	F 	0.84101 0.09313 0.52678 -0.32700
F 	F 	0.90243 0.02334 0.35380 -0.32900
F 	F 	0.89296 0.02869 0.53297 -0.33500
F 	F 	0.85113 0.08842 0.34780 -0.31400
F 	F 	0.93000 0.22545 0.45242 -0.32200
F 	F 	0.66917 0.10854 0.41968 -0.35700
C 	C 	0.21201 0.12232 0.50190 0.25300
C 	C 	0.23599 0.11961 0.45748 -0.00200
C 	C 	0.19328 0.08180 0.41107 0.25300
C 	C 	0.12700 0.04645 0.40920 0.30300
C 	C 	0.10301 0.04873 0.45372 -0.16100
C 	C 	0.14573 0.08700 0.50002 0.30200
C 	C 	0.30581 0.15643 0.45953 0.00900
F 	F 	0.21611 0.07928 0.36786 -0.31600
F 	F 	0.12290 0.08930 0.54329 -0.33200
C 	C 	0.33656 0.12776 0.46583 0.23800
C 	C 	0.40257 0.16226 0.46646 0.32000
C 	C 	0.43832 0.22576 0.46076 -0.20000
C 	C 	0.40759 0.25469 0.45538 0.32500
C 	C 	0.34158 0.22007 0.45462 0.23900
F 	F 	0.30231 0.06630 0.47093 -0.32000
F 	F 	0.44188 0.31658 0.45161 -0.34500
F 	F 	0.43155 0.13364 0.47143 -0.36300
F 	F 	0.31225 0.24826 0.44898 -0.31600
F 	F 	0.25301 0.15887 0.54691 -0.31800
F 	F 	0.08600 0.00969 0.36424 -0.33000
C 	C 	0.91956 0.78298 0.02561 0.25100
C 	C 	0.86154 0.73763 0.99140 -0.00200
C 	C 	0.83423 0.75710 0.95780 0.25400
C 	C 	0.86587 0.82129 0.95713 0.29600
C 	C 	0.92398 0.86668 0.99131 -0.15100
C 	C 	0.94991 0.84720 0.02632 0.28800
C 	C 	0.82949 0.66976 0.99065 0.01100
F 	F 	0.77725 0.71370 0.92558 -0.31500
F 	F 	0.00483 0.89064 0.06077 -0.33200
C 	C 	0.80589 0.64372 0.03390 0.23700
C 	C 	0.77573 0.57955 0.03334 0.31700
C 	C 	0.76610 0.54000 0.98856 -0.19000
C 	C 	0.78999 0.56632 0.94522 0.32000
C 	C 	0.82252 0.63104 0.94670 0.23800
F 	F 	0.81195 0.68066 0.07646 -0.31000
F 	F 	0.78019 0.52905 0.90123 -0.36000
F 	F 	0.75614 0.55584 0.07643 -0.35500
F 	F 	0.84682 0.65615 0.90520 -0.32000
F 	F 	0.94676 0.76470 0.05783 -0.31600
F 	F 	0.84079 0.83939 0.92258 -0.34200
C 	C 	0.86298 0.20452 0.01943 0.23800
C 	C 	0.83050 0.13899 0.00822 0.00300
C 	C 	0.76321 0.09852 0.99543 0.24400
C 	C 	0.72879 0.12349 0.99104 0.31700
C 	C 	0.76154 0.18924 0.99943 -0.20200
C 	C 	0.82865 0.22958 0.01518 0.31300
C 	C 	0.86708 0.11306 0.00529 -0.00800
F 	F 	0.73139 0.03501 0.98540 -0.31700
F 	F 	0.86064 0.29312 0.02545 -0.36200
C 	C 	0.88568 0.09797 0.04919 0.25700
C 	C 	0.91883 0.07167 0.04589 0.29400
C 	C 	0.93346 0.06022 0.99863 -0.15300
C 	C 	0.91553 0.07609 0.95490 0.29800
C 	C 	0.88254 0.10248 0.95824 0.25700
F 	F 	0.87120 0.10840 0.09488 -0.31500
F 	F 	0.92915 0.06488 0.90900 -0.33400
F 	F 	0.93650 0.05702 0.08848 -0.33400
F 	F 	0.86496 0.11724 0.91567 -0.32700
F 	F 	0.92799 0.24393 0.03292 -0.32300
F 	F 	0.66395 0.08388 0.97605 -0.35200
C 	C 	0.34062 0.11855 0.94710 0.23900
C 	C 	0.32202 0.15619 0.96428 0.00800
C 	C 	0.36860 0.22123 0.98171 0.23800
C 	C 	0.43362 0.24811 0.98426 0.32300
C 	C 	0.45265 0.21016 0.96872 -0.20300
C 	C 	0.40568 0.14544 0.94913 0.32200
C 	C 	0.25461 0.12678 0.96840 0.00100
F 	F 	0.35087 0.25803 0.99781 -0.31800
F 	F 	0.42312 0.10862 0.93230 -0.35600
C 	C 	0.23546 0.11502 0.01609 0.24700
C 	C 	0.17151 0.08682 0.02017 0.29800
C 	C 	0.12614 0.06987 0.97656 -0.15900
C 	C 	0.14547 0.08271 0.92903 0.30100
C 	C 	0.20958 0.11116 0.92497 0.25300
F 	F 	0.27881 0.13034 0.05833 -0.32400
F 	F 	0.10185 0.06642 0.88666 -0.33100
F 	F 	0.15320 0.07469 0.06630 -0.33000
F 	F 	0.22792 0.12315 0.87885 -0.31400
F 	F 	0.29569 0.05565 0.92961 -0.31700
F 	F 	0.47828 0.31054 0.00393 -0.37400
