data_crystal

_cell_length_a 25.53280
_cell_length_b 27.04109
_cell_length_c 37.20793
_cell_angle_alpha 60.73326
_cell_angle_beta  118.96265
_cell_angle_gamma 133.16071

_symmetry_space_group_name_	'P 1'
_symmetry_space_group_name_H-M	'P 1'

loop_
_symmetry_equiv_pos_as_xyz
  x,y,z

loop_
_atom_site_label
_atom_site_type_symbol
_atom_site_fract_x
_atom_site_fract_y
_atom_site_fract_z
_atom_site_charge
C 	C 	0.99087 0.90658 0.03314 0.30700
O 	O 	0.98985 0.85235 0.06184 -0.40300
Co	Co	0.07187 0.09430 0.61164 1.19000
O 	O 	0.97668 0.96162 0.13646 -0.59300
O 	O 	0.01135 0.90229 0.12749 -0.75800
O 	O 	0.07688 0.00132 0.64625 -0.58000
O 	O 	0.08916 0.93888 0.62220 -0.77200
C 	C 	0.98839 0.91838 0.98953 -0.13100
C 	C 	0.99568 0.98140 0.28573 0.09100
C 	C 	0.01467 0.97737 0.32891 -0.04100
C 	C 	0.07328 0.03604 0.40941 -0.11100
C 	C 	0.08901 0.02861 0.45281 0.12300
H 	H 	0.98513 0.67610 0.24223 0.02300
Co	Co	0.02716 0.97720 0.09269 1.19600
O 	O 	0.02236 0.05988 0.06501 -0.45800
O 	O 	0.00634 0.81988 0.21177 -0.36900
Co	Co	0.11531 0.01980 0.59455 1.18600
Co	Co	0.10607 0.88609 0.60718 1.16900
O 	O 	0.12969 0.11055 0.57957 -0.46600
O 	O 	0.08314 0.15366 0.67838 -0.38900
O 	O 	0.07712 0.83823 0.69867 -0.37200
C 	C 	0.00035 0.01526 0.83520 -0.08700
C 	C 	0.00543 0.03263 0.79424 0.14000
N 	N 	0.02577 0.96880 0.27232 -0.18900
H 	H 	0.04924 0.95983 0.35159 0.04900
H 	H 	0.11429 0.08180 0.39132 0.06300
H 	H 	0.02006 0.97951 0.24012 0.08400
H 	H 	0.00572 0.58027 0.26947 0.05100
C 	C 	0.99959 0.16517 0.10938 0.26300
Co	Co	0.04810 0.85489 0.12452 1.17200
O 	O 	0.02357 0.13616 0.10761 -0.36300
C 	C 	0.13941 0.19945 0.66012 0.29500
O 	O 	0.14476 0.18632 0.63224 -0.37400
C 	C 	0.05515 0.96619 0.93822 0.07800
C 	C 	0.05490 0.95694 0.97870 -0.00900
H 	H 	0.01099 0.05303 0.84568 0.05900
N 	N 	0.02885 0.09842 0.76943 -0.20600
N 	N 	0.15627 0.07830 0.47187 -0.20200
H 	H 	0.16946 0.07511 0.50385 0.08500
C 	C 	0.04025 0.70573 0.26139 0.00400
C 	C 	0.06212 0.82095 0.21633 0.29800
C 	C 	0.14142 0.85382 0.70271 0.29000
H 	H 	0.04469 0.11679 0.74199 0.09600
H 	H 	0.05875 0.95152 0.29423 0.08900
S 	S 	0.13150 0.73950 0.76564 0.03300
H 	H 	0.15455 0.62974 0.80342 0.05000
C 	C 	0.06154 0.61667 0.28505 -0.05100
C 	C 	0.08203 0.77818 0.25512 -0.07900
O 	O 	0.10022 0.85968 0.18709 -0.38600
O 	O 	0.16757 0.88076 0.66941 -0.38200
N 	N 	0.12036 0.00161 0.92910 -0.19600
H 	H 	0.10672 0.97903 0.00210 0.04200
H 	H 	0.03649 0.13371 0.77913 0.08700
H 	H 	0.12233 0.00663 0.90005 0.09200
H 	H 	0.19634 0.12132 0.45454 0.08700
C 	C 	0.05340 0.23547 0.11660 -0.05700
C 	C 	0.08294 0.67904 0.28697 0.00900
O 	O 	0.19744 0.97716 0.58313 -0.39900
C 	C 	0.17517 0.82552 0.74376 -0.07100
S 	S 	0.12990 0.25803 0.15585 0.02400
H 	H 	0.98275 0.27144 0.08539 0.02500
O 	O 	0.13963 0.94995 0.10218 -0.39900
O 	O 	0.14019 0.02955 0.11011 -0.38800
O 	O 	0.22360 0.05758 0.60699 -0.39300
S 	S 	0.21113 0.34088 0.64002 0.02300
C 	C 	0.19954 0.26575 0.67265 -0.07300
C 	C 	0.20569 0.68157 0.80488 -0.05700
C 	C 	0.03545 0.28084 0.10527 0.00100
S 	S 	0.10988 0.55486 0.28345 -0.00600
H 	H 	0.17016 0.02347 0.95163 0.08500
H 	H 	0.20508 0.22395 0.74077 0.04300
C 	C 	0.20503 0.73863 0.79409 -0.00000
C 	C 	0.11573 0.60591 0.29993 0.00300
C 	C 	0.21963 0.26961 0.71419 -0.02100
H 	H 	0.02599 0.37250 0.11168 0.05000
C 	C 	0.17551 0.00968 0.11057 0.29700
C 	C 	0.24469 0.03609 0.59502 0.29500
H 	H 	0.23362 0.46633 0.63728 0.04900
H 	H 	0.23388 0.59322 0.81181 0.04600
C 	C 	0.08777 0.33291 0.12838 0.00900
C 	C 	0.07366 0.37203 0.13196 -0.05000
H 	H 	0.13786 0.47923 0.27051 0.05700
C 	C 	0.24301 0.38035 0.67609 0.00100
C 	C 	0.23556 0.43163 0.66848 -0.06000
C 	C 	0.23317 0.43829 0.70268 0.02700
C 	C 	0.23262 0.39116 0.74244 0.00200
C 	C 	0.24305 0.33354 0.71603 0.01500
C 	C 	0.14573 0.32741 0.15786 0.00500
C 	C 	0.12226 0.40853 0.16368 0.00100
S 	S 	0.10982 0.44613 0.18008 -0.00300
C 	C 	0.15780 0.73063 0.30141 0.00400
S 	S 	0.16977 0.80703 0.28032 0.02600
H 	H 	0.25516 0.55958 0.77955 0.05300
C 	C 	0.24094 0.34049 0.75021 -0.05700
H 	H 	0.24260 0.30566 0.78140 0.04600
C 	C 	0.25123 0.85655 0.75735 -0.02100
C 	C 	0.25488 0.50148 0.70455 -0.06000
S 	S 	0.26144 0.42896 0.77860 -0.00900
H 	H 	0.26990 0.54759 0.67829 0.04800
C 	C 	0.26804 0.80774 0.78582 0.01800
C 	C 	0.27369 0.69455 0.81385 0.02600
C 	C 	0.28001 0.64699 0.81274 -0.05800
C 	C 	0.17446 0.39724 0.19532 0.02900
C 	C 	0.17258 0.45325 0.22673 -0.00600
C 	C 	0.19102 0.65915 0.31190 0.02800
Co	Co	0.03002 0.89068 0.65258 1.19500
C 	C 	0.18571 0.35457 0.19360 -0.06100
C 	C 	0.19105 0.52293 0.26276 -0.07500
C 	C 	0.27211 0.50376 0.74607 -0.00500
H 	H 	0.29151 0.90929 0.74234 0.04500
C 	C 	0.21283 0.72304 0.31165 -0.06000
C 	C 	0.20037 0.59424 0.29313 -0.00400
C 	C 	0.05106 0.95632 0.52231 0.29900
C 	C 	0.20263 0.42163 0.23102 -0.06000
C 	C 	0.31758 0.08506 0.58565 -0.07400
C 	C 	0.25447 0.06151 0.11107 -0.07300
O 	O 	0.05167 0.99310 0.53656 -0.39100
C 	C 	0.31159 0.59034 0.77786 -0.07500
H 	H 	0.22203 0.34116 0.21952 0.04900
H 	H 	0.31290 0.17458 0.54332 0.04000
C 	C 	0.21878 0.51598 0.24224 0.04000
C 	C 	0.23160 0.58658 0.27275 0.03800
C 	C 	0.23870 0.65216 0.30860 -0.05900
C 	C 	0.33552 0.14659 0.55267 -0.02300
H 	H 	0.28147 0.99051 0.12730 0.04600
C 	C 	0.32886 0.56964 0.75955 0.03800
C 	C 	0.33836 0.76349 0.81042 0.00500
C 	C 	0.33540 0.82072 0.79336 -0.05600
C 	C 	0.35001 0.67929 0.80855 -0.00300
H 	H 	0.24840 0.42304 0.25670 0.04700
S 	S 	0.35744 0.05508 0.58553 0.01600
H 	H 	0.27057 0.76718 0.31594 0.04800
S 	S 	0.28934 0.14389 0.08163 0.02600
C 	C 	0.29847 0.04389 0.11592 -0.02700
C 	C 	0.36740 0.65126 0.79325 0.03700
O 	O 	0.04157 0.89632 0.54633 -0.38200
H 	H 	0.29802 0.69058 0.31440 0.04500
C 	C 	0.28821 0.57160 0.23302 -0.07800
C 	C 	0.30110 0.64257 0.26273 -0.07600
H 	H 	0.38242 0.87310 0.78349 0.04900
C 	C 	0.37746 0.16229 0.52922 0.01500
H 	H 	0.30909 0.56675 0.21642 0.05500
S 	S 	0.39976 0.76467 0.80482 -0.01100
C 	C 	0.39225 0.11380 0.54365 0.00300
C 	C 	0.40093 0.61090 0.75512 -0.07600
C 	C 	0.32995 0.63421 0.24396 0.03900
H 	H 	0.33218 0.69267 0.26875 0.05200
H 	H 	0.41301 0.59673 0.73889 0.05300
C 	C 	0.35807 0.09960 0.09576 0.01700
C 	C 	0.36084 0.16072 0.07556 -0.00100
C 	C 	0.03484 0.96907 0.47613 -0.08600
C 	C 	0.44062 0.68847 0.79196 -0.07500
C 	C 	0.41478 0.22634 0.50055 -0.05700
H 	H 	0.40902 0.26710 0.49211 0.04700
C 	C 	0.45679 0.67094 0.77085 0.03800
C 	C 	0.44787 0.12869 0.53293 -0.06200
C 	C 	0.39431 0.08936 0.08425 -0.05900
H 	H 	0.39440 0.04349 0.10040 0.04500
C 	C 	0.39356 0.20952 0.04106 -0.06000
H 	H 	0.39310 0.25519 0.02467 0.04800
H 	H 	0.48476 0.73304 0.80581 0.05500
H 	H 	0.46623 0.09525 0.54912 0.04600
C 	C 	0.98742 0.93784 0.90765 -0.01400
C 	C 	0.98589 0.95132 0.86359 -0.00700
C 	C 	0.98932 0.98231 0.78017 -0.12300
O 	O 	0.97460 0.93795 0.03990 -0.41000
O 	O 	0.92886 0.13854 0.09686 -0.40000
Co	Co	0.95585 0.04322 0.09056 1.17700
C 	C 	0.69633 0.31809 0.97708 0.03500
C 	C 	0.62494 0.26938 0.98465 -0.07600
C 	C 	0.60199 0.28463 0.00289 0.03800
C 	C 	0.65118 0.34768 0.01507 -0.07700
C 	C 	0.72240 0.39636 0.00793 0.03700
C 	C 	0.74459 0.38221 0.98831 -0.07700
H 	H 	0.58709 0.21975 0.97634 0.05400
H 	H 	0.63465 0.35842 0.03077 0.05400
H 	H 	0.79900 0.42098 0.98175 0.04900
C 	C 	0.77110 0.36510 0.46976 0.03500
C 	C 	0.69390 0.32654 0.46139 -0.07700
C 	C 	0.66277 0.34005 0.47467 0.03700
C 	C 	0.70858 0.39611 0.49330 -0.07600
C 	C 	0.78538 0.43744 0.49967 0.03600
C 	C 	0.81682 0.42148 0.48852 -0.07500
H 	H 	0.65786 0.28556 0.44493 0.05000
H 	H 	0.68485 0.40659 0.50384 0.05500
H 	H 	0.87636 0.45247 0.49475 0.05200
Co	Co	0.87684 0.91935 0.15367 1.18800
Co	Co	0.94829 0.85372 0.15572 1.18000
Co	Co	0.84695 0.03477 0.12000 1.16400
C 	C 	0.89015 0.73822 0.12589 0.30500
O 	O 	0.79418 0.02661 0.05785 -0.39300
O 	O 	0.90288 0.99969 0.12451 -0.76800
C 	C 	0.83271 0.05721 0.03038 0.29700
O 	O 	0.87770 0.83456 0.17936 -0.47300
C 	C 	0.72764 0.88154 0.12651 0.30400
O 	O 	0.87347 0.03919 0.03613 -0.39900
O 	O 	0.75867 0.93424 0.14088 -0.39500
O 	O 	0.76904 0.87552 0.11993 -0.40000
C 	C 	0.91571 0.99409 0.21252 0.31000
O 	O 	0.90607 0.04224 0.18222 -0.39800
O 	O 	0.88187 0.93298 0.20612 -0.38700
O 	O 	0.95743 0.75491 0.14389 -0.41700
O 	O 	0.87501 0.77880 0.12165 -0.40500
Co	Co	0.98231 0.96229 0.66747 1.18100
Co	Co	0.97504 0.08904 0.64768 1.15800
C 	C 	0.94900 0.78017 0.61165 0.28300
O 	O 	0.99719 0.16259 0.59020 -0.41300
O 	O 	0.01839 0.04700 0.64569 -0.75800
C 	C 	0.97915 0.14459 0.55682 0.30100
O 	O 	0.97111 0.87288 0.68435 -0.48000
C 	C 	0.84143 0.95128 0.62895 0.30400
O 	O 	0.99251 0.10297 0.56057 -0.41000
O 	O 	0.87070 0.01861 0.61681 -0.39900
O 	O 	0.87635 0.92945 0.63132 -0.40100
C 	C 	0.98414 0.99469 0.73545 0.30200
O 	O 	0.94553 0.01817 0.70497 -0.41700
O 	O 	0.00528 0.96906 0.72723 -0.37200
O 	O 	0.01262 0.78934 0.62633 -0.38200
O 	O 	0.94524 0.82561 0.61257 -0.40100
C 	C 	0.92043 0.88836 0.95935 0.13600
C 	C 	0.92082 0.89944 0.91841 -0.09800
N 	N 	0.85484 0.84841 0.96950 -0.20500
H 	H 	0.86908 0.87775 0.89491 0.05800
C 	C 	0.97381 0.91777 0.80853 -0.02100
C 	C 	0.97289 0.90210 0.85031 0.05700
H 	H 	0.96153 0.87921 0.79794 0.04400
N 	N 	0.95971 0.83995 0.87743 -0.19200
H 	H 	0.94987 0.80386 0.86725 0.08200
H 	H 	0.95959 0.82695 0.90883 0.08600
H 	H 	0.85235 0.83785 0.99983 0.10300
H 	H 	0.80508 0.82661 0.94694 0.08700
C 	C 	0.94728 0.00071 0.25663 -0.11200
C 	C 	0.98947 0.99592 0.34301 -0.04400
C 	C 	0.94669 0.02137 0.31333 0.06500
C 	C 	0.92497 0.02239 0.27051 -0.02800
C 	C 	0.00495 0.98501 0.38912 0.05000
N 	N 	0.92585 0.04431 0.32575 -0.19500
H 	H 	0.88924 0.03869 0.24809 0.04400
C 	C 	0.96622 0.91851 0.45567 -0.03400
C 	C 	0.95116 0.92513 0.41257 0.03800
H 	H 	0.92475 0.87322 0.47354 0.04900
N 	N 	0.88539 0.87361 0.39405 -0.18800
H 	H 	0.84573 0.83007 0.41153 0.08400
H 	H 	0.87342 0.87542 0.36252 0.08900
H 	H 	0.89263 0.06128 0.30378 0.08100
H 	H 	0.94372 0.04716 0.35697 0.08400
C 	C 	0.62145 0.81862 0.71560 0.00300
C 	C 	0.64632 0.86974 0.67920 -0.05500
C 	C 	0.67114 0.86058 0.65813 0.01500
C 	C 	0.66402 0.79820 0.67114 0.00200
C 	C 	0.63735 0.74625 0.70708 -0.06000
C 	C 	0.61390 0.75622 0.72853 0.02700
S 	S 	0.56350 0.80381 0.73427 -0.01000
C 	C 	0.52983 0.72033 0.76097 -0.00500
C 	C 	0.56251 0.70071 0.75427 -0.06000
S 	S 	0.72735 0.81582 0.65571 0.02300
C 	C 	0.76353 0.90029 0.63081 -0.07600
C 	C 	0.72627 0.91762 0.63496 -0.01800
H 	H 	0.64994 0.91685 0.66888 0.04600
H 	H 	0.63401 0.69924 0.71762 0.04700
H 	H 	0.54342 0.64706 0.76296 0.04500
H 	H 	0.74682 0.97122 0.62847 0.04200
C 	C 	0.48645 0.76963 0.18414 0.00300
C 	C 	0.50478 0.79695 0.14567 -0.05500
C 	C 	0.54620 0.78268 0.14310 0.01600
C 	C 	0.56125 0.73578 0.17683 0.00200
C 	C 	0.54221 0.70798 0.21519 -0.05900
C 	C 	0.50286 0.72407 0.21818 0.02700
S 	S 	0.41417 0.75317 0.18891 -0.00900
C 	C 	0.40325 0.69164 0.23470 -0.00600
C 	C 	0.45688 0.68087 0.24698 -0.06000
S 	S 	0.63618 0.75511 0.17352 0.02500
C 	C 	0.65200 0.82097 0.12987 -0.07500
C 	C 	0.59640 0.82972 0.11640 -0.01700
H 	H 	0.49061 0.83111 0.11932 0.04700
H 	H 	0.55655 0.67401 0.24164 0.04800
H 	H 	0.45401 0.63558 0.27100 0.04600
H 	H 	0.60061 0.87631 0.09367 0.04000
C 	C 	0.88938 0.33359 0.45462 0.01600
C 	C 	0.94866 0.32963 0.46949 -0.09200
C 	C 	0.93278 0.26552 0.47521 0.03400
C 	C 	0.85912 0.20660 0.46820 -0.00700
C 	C 	0.80057 0.20827 0.45987 -0.05500
C 	C 	0.81622 0.27307 0.45198 0.01900
S 	S 	0.89335 0.39299 0.46106 -0.02500
C 	C 	0.80343 0.34650 0.45841 -0.00300
C 	C 	0.76774 0.27997 0.45435 -0.05900
S 	S 	0.85885 0.13613 0.49532 0.02100
C 	C 	0.94984 0.17577 0.51504 -0.07000
C 	C 	0.98373 0.24823 0.50130 -0.05200
H 	H 	0.00478 0.37343 0.47877 0.07000
H 	H 	0.74565 0.16032 0.46206 0.04500
H 	H 	0.71266 0.23573 0.45905 0.04300
H 	H 	0.04029 0.28570 0.51554 0.06400
C 	C 	0.86086 0.55500 0.56802 0.00100
C 	C 	0.85103 0.56397 0.59769 -0.05700
C 	C 	0.84244 0.61678 0.58476 0.01500
C 	C 	0.83539 0.65354 0.54191 0.00100
C 	C 	0.84230 0.64224 0.51189 -0.06200
C 	C 	0.85351 0.59114 0.52537 0.02500
S 	S 	0.84510 0.48270 0.57098 -0.01600
C 	C 	0.83291 0.49592 0.51941 -0.00600
C 	C 	0.83769 0.55809 0.49780 -0.06100
S 	S 	0.86398 0.73087 0.54056 0.01500
C 	C 	0.88404 0.72132 0.59252 -0.07100
C 	C 	0.86794 0.65410 0.61295 -0.02300
H 	H 	0.85497 0.53425 0.63041 0.04500
H 	H 	0.83929 0.67236 0.47923 0.04500
H 	H 	0.81882 0.57240 0.46372 0.04700
H 	H 	0.88800 0.63875 0.64679 0.04100
C 	C 	0.46256 0.23694 0.48472 0.00300
C 	C 	0.48103 0.18993 0.50163 0.02600
S 	S 	0.53107 0.31471 0.46402 -0.01300
C 	C 	0.58299 0.29097 0.47282 -0.00500
C 	C 	0.54870 0.22031 0.49482 -0.06100
H 	H 	0.57647 0.19519 0.51072 0.04500
C 	C 	0.72511 0.23239 0.93377 0.00300
C 	C 	0.71152 0.17124 0.93621 -0.05700
C 	C 	0.77201 0.16881 0.95116 0.01200
C 	C 	0.84373 0.22612 0.96397 0.00200
C 	C 	0.85501 0.28163 0.96839 -0.06200
C 	C 	0.79485 0.28483 0.95251 0.02500
S 	S 	0.66239 0.23518 0.93412 -0.01500
C 	C 	0.71965 0.30305 0.95610 -0.00400
C 	C 	0.79189 0.32425 0.96550 -0.06100
S 	S 	0.89511 0.19675 0.99535 0.01100
C 	C 	0.83139 0.11278 0.99357 -0.08100
C 	C 	0.76497 0.10511 0.96794 -0.01700
H 	H 	0.65549 0.12542 0.92962 0.04600
H 	H 	0.90727 0.31814 0.98618 0.04400
H 	H 	0.83825 0.35868 0.98622 0.04200
H 	H 	0.71186 0.05448 0.96742 0.04100
C 	C 	0.77922 0.60616 0.05918 0.00100
C 	C 	0.77522 0.59535 0.02445 -0.06000
C 	C 	0.79444 0.55246 0.03256 0.02400
C 	C 	0.82247 0.52619 0.07421 0.00200
C 	C 	0.82476 0.53547 0.10892 -0.05700
C 	C 	0.80560 0.57831 0.10097 0.01400
S 	S 	0.79577 0.67756 0.05865 0.02300
C 	C 	0.83246 0.67434 0.11052 -0.07900
C 	C 	0.83444 0.61592 0.12989 -0.01900
S 	S 	0.81153 0.45782 0.07491 -0.01600
C 	C 	0.77490 0.46037 0.02313 -0.00700
C 	C 	0.76758 0.51555 0.00369 -0.06000
H 	H 	0.75634 0.61830 0.99229 0.04600
H 	H 	0.84400 0.51273 0.14104 0.04400
H 	H 	0.86715 0.60843 0.16162 0.03900
H 	H 	0.73335 0.52102 0.97221 0.04500
C 	C 	0.42649 0.13793 0.04962 0.00300
C 	C 	0.42836 0.19842 0.02900 0.02500
S 	S 	0.49529 0.15307 0.04142 -0.01400
C 	C 	0.52655 0.23377 0.00969 -0.00500
C 	C 	0.48458 0.25255 0.00631 -0.06000
H 	H 	0.49991 0.30545 0.99289 0.04500
