data_crystal

_cell_length_a 23.82325
_cell_length_b 23.15750
_cell_length_c 31.84375
_cell_angle_alpha 104.01202
_cell_angle_beta  115.93818
_cell_angle_gamma 111.53049

_symmetry_space_group_name_	'P 1'
_symmetry_space_group_name_H-M	'P 1'

loop_
_symmetry_equiv_pos_as_xyz
  x,y,z

loop_
_atom_site_label
_atom_site_type_symbol
_atom_site_fract_x
_atom_site_fract_y
_atom_site_fract_z
_atom_site_charge
C 	C 	0.75947 0.53710 0.96788 0.02100
C 	C 	0.81166 0.54650 0.01685 0.02100
C 	C 	0.79763 0.49004 0.02792 -0.05000
C 	C 	0.73216 0.42326 0.98974 0.10100
C 	C 	0.67937 0.41406 0.94073 -0.05600
C 	C 	0.69315 0.47079 0.92996 0.02200
N 	N 	0.72247 0.36385 0.99975 -0.13800
C 	C 	0.51389 0.23343 0.97087 0.02600
C 	C 	0.55387 0.20421 0.96539 0.01400
C 	C 	0.62183 0.24635 0.97452 -0.05000
C 	C 	0.65002 0.31855 0.98804 0.09600
C 	C 	0.61218 0.34857 0.99784 -0.04800
C 	C 	0.54393 0.30594 0.98821 0.01600
C 	C 	0.80110 0.25045 0.94208 0.02000
C 	C 	0.83742 0.29038 0.99703 0.01700
C 	C 	0.81318 0.32995 0.01565 -0.05200
C 	C 	0.75095 0.32817 0.97968 0.09500
C 	C 	0.71475 0.28853 0.92450 -0.05700
C 	C 	0.74035 0.25058 0.90592 0.01200
H 	H 	0.86353 0.59733 0.04602 0.07700
H 	H 	0.83861 0.49751 0.06558 0.08100
H 	H 	0.62780 0.36322 0.91125 0.08800
H 	H 	0.65277 0.46304 0.89192 0.09000
H 	H 	0.53231 0.14874 0.95412 0.07700
H 	H 	0.65290 0.22305 0.97205 0.07400
H 	H 	0.63599 0.40501 0.01345 0.09200
H 	H 	0.51464 0.32941 0.99467 0.11000
H 	H 	0.88298 0.28898 0.02525 0.09000
H 	H 	0.84109 0.36006 0.05810 0.08300
H 	H 	0.66514 0.28463 0.89620 0.08000
H 	H 	0.71128 0.21909 0.86344 0.07800
C 	C 	0.74454 0.52850 0.45537 0.01400
C 	C 	0.80410 0.54474 0.50415 0.01800
C 	C 	0.79720 0.49484 0.52203 -0.05200
C 	C 	0.73082 0.42828 0.49138 0.10000
C 	C 	0.66925 0.41392 0.44425 -0.05900
C 	C 	0.67627 0.46397 0.42641 0.01800
N 	N 	0.72915 0.37337 0.50569 -0.13900
C 	C 	0.53316 0.25078 0.49345 0.03000
C 	C 	0.54511 0.22015 0.45706 0.00800
C 	C 	0.60873 0.26001 0.46031 -0.05500
C 	C 	0.66257 0.33080 0.50129 0.09400
C 	C 	0.65117 0.36064 0.53837 -0.04600
C 	C 	0.58629 0.32128 0.53397 0.01500
C 	C 	0.80964 0.25984 0.45036 0.02300
C 	C 	0.82660 0.27927 0.50166 0.01900
C 	C 	0.80098 0.31754 0.51980 -0.05000
C 	C 	0.75684 0.33549 0.48652 0.10300
C 	C 	0.73931 0.31536 0.43472 -0.05300
C 	C 	0.76605 0.27813 0.41703 0.01900
H 	H 	0.85647 0.59508 0.52733 0.06600
H 	H 	0.84444 0.50665 0.55865 0.08700
H 	H 	0.61740 0.36291 0.42024 0.07200
H 	H 	0.62946 0.45174 0.38930 0.07700
H 	H 	0.50368 0.16615 0.42503 0.08100
H 	H 	0.61508 0.23639 0.43033 0.07200
H 	H 	0.69203 0.41494 0.56994 0.08600
H 	H 	0.57651 0.34607 0.56127 0.10200
H 	H 	0.85869 0.26371 0.52715 0.08900
H 	H 	0.81438 0.33236 0.55947 0.09100
H 	H 	0.70310 0.32623 0.40761 0.08900
H 	H 	0.75138 0.26195 0.37695 0.08900
C 	C 	0.31522 0.52732 0.98179 0.01800
C 	C 	0.35122 0.57693 0.03465 0.02500
C 	C 	0.36255 0.62296 0.96347 -0.05700
C 	C 	0.32256 0.55052 0.94663 0.02500
H 	H 	0.34709 0.55931 0.06234 0.09200
H 	H 	0.36489 0.64024 0.93529 0.09000
H 	H 	0.29595 0.51246 0.90599 0.08600
C 	C 	0.30346 0.51468 0.47030 0.02000
C 	C 	0.33773 0.56515 0.52249 0.02200
C 	C 	0.34309 0.60906 0.44903 -0.05800
C 	C 	0.30571 0.53685 0.43349 0.02000
H 	H 	0.33493 0.54839 0.55084 0.09300
H 	H 	0.34584 0.62553 0.42059 0.08900
H 	H 	0.27896 0.49817 0.39300 0.08100
Zn	Zn	0.16842 0.14947 0.99156 1.20000
Zn	Zn	0.04147 0.08483 0.87498 1.20300
O 	O 	0.00682 0.04908 0.79783 -0.41400
C 	C 	0.24390 0.11636 0.95254 0.33400
C 	C 	0.16519 0.24064 0.94092 0.33700
O 	O 	0.25397 0.15141 0.99693 -0.36000
O 	O 	0.17753 0.08113 0.90754 -0.30800
O 	O 	0.06781 0.09962 0.94863 -0.75900
O 	O 	0.11367 0.18294 0.89389 -0.42200
O 	O 	0.18795 0.23773 0.98582 -0.39100
O 	O 	0.90864 0.02634 0.90994 -0.44200
Zn	Zn	0.98661 0.04846 0.02060 1.19200
C 	C 	0.90444 0.07211 0.94044 0.32800
O 	O 	0.03643 0.06010 0.09194 -0.39200
O 	O 	0.93302 0.08723 0.99032 -0.42900
O 	O 	0.03651 0.01807 0.99952 -0.89000
H 	H 	0.09091 0.04562 0.02674 0.17600
Zn	Zn	0.15608 0.14427 0.48791 1.19700
Zn	Zn	0.02789 0.07577 0.36895 1.21700
O 	O 	0.99072 0.04165 0.29144 -0.49800
C 	C 	0.25098 0.12417 0.46286 0.30400
C 	C 	0.14685 0.23208 0.43497 0.34900
O 	O 	0.25049 0.15956 0.50160 -0.42000
O 	O 	0.18856 0.06820 0.41936 -0.27300
O 	O 	0.05541 0.08925 0.44247 -0.75400
O 	O 	0.10154 0.17335 0.38855 -0.35100
O 	O 	0.16772 0.23009 0.48010 -0.40400
O 	O 	0.89789 0.02327 0.40474 -0.43100
Zn	Zn	0.96912 0.03845 0.51324 1.19100
C 	C 	0.89867 0.07253 0.43674 0.32100
O 	O 	0.01147 0.04335 0.58306 -0.41000
O 	O 	0.92519 0.08541 0.48600 -0.43100
O 	O 	0.01789 0.00621 0.49168 -0.87500
H 	H 	0.07185 0.03123 0.51942 0.18600
C 	C 	0.07681 0.06256 0.73317 0.11700
C 	C 	0.07762 0.05426 0.68830 -0.09000
H 	H 	0.11806 0.09861 0.69028 0.08800
C 	C 	0.13388 0.13352 0.78391 -0.14400
C 	C 	0.12166 0.19272 0.77807 0.01800
H 	H 	0.12520 0.19974 0.74582 0.06000
H 	H 	0.16705 0.24329 0.81579 0.07700
H 	H 	0.13656 0.13121 0.81904 0.11200
C 	C 	0.04738 0.17913 0.76666 -0.18800
H 	H 	0.04367 0.17468 0.79936 0.10900
H 	H 	0.04272 0.22417 0.76370 0.12600
H 	H 	0.00028 0.13004 0.72838 0.12700
H 	H 	0.18980 0.14895 0.79362 0.13600
C 	C 	0.08836 0.05308 0.19745 0.07200
C 	C 	0.07725 0.05420 0.23732 0.02100
H 	H 	0.12104 0.09549 0.27812 0.11000
C 	C 	0.16375 0.10655 0.21300 -0.11300
C 	C 	0.17420 0.17946 0.22481 -0.00400
H 	H 	0.16991 0.19881 0.25815 0.08800
H 	H 	0.13009 0.17542 0.18915 0.07100
H 	H 	0.17200 0.08878 0.18168 0.07700
C 	C 	0.24987 0.23359 0.24024 -0.17300
H 	H 	0.29515 0.23977 0.27651 0.12000
H 	H 	0.25577 0.28569 0.24876 0.10800
H 	H 	0.25517 0.21665 0.20713 0.08800
H 	H 	0.20759 0.11105 0.24913 0.11800
C 	C 	0.18507 0.39965 0.42379 0.00600
C 	C 	0.26285 0.43835 0.45370 0.09800
C 	C 	0.30133 0.40525 0.47064 -0.13600
C 	C 	0.26216 0.33777 0.46448 0.09600
C 	C 	0.18477 0.30041 0.43718 -0.00400
C 	C 	0.14516 0.33017 0.41457 -0.05200
C 	C 	0.06077 0.28664 0.37796 0.77600
H 	H 	0.15595 0.42435 0.40860 0.11000
H 	H 	0.29184 0.31417 0.48113 0.09200
C 	C 	0.38440 0.44263 0.49713 0.79300
F 	F 	0.03285 0.32786 0.36611 -0.38900
F 	F 	0.03183 0.25550 0.40156 -0.41600
F 	F 	0.03682 0.23428 0.33079 -0.41300
F 	F 	0.42221 0.49250 0.54941 -0.43500
F 	F 	0.40358 0.47584 0.47052 -0.43700
F 	F 	0.40678 0.39522 0.49675 -0.43000
F 	F 	0.84869 0.04798 0.52857 -0.46300
F 	F 	0.81509 0.04365 0.58356 -0.44500
C 	C 	0.30854 0.41421 0.96739 0.00500
C 	C 	0.27249 0.45078 0.96391 0.09100
C 	C 	0.19732 0.41504 0.94601 -0.12400
C 	C 	0.16214 0.34501 0.93701 0.07300
C 	C 	0.19962 0.30974 0.94321 -0.01900
C 	C 	0.27185 0.34298 0.95538 -0.07000
C 	C 	0.31045 0.30322 0.95685 0.77100
H 	H 	0.36574 0.44187 0.98047 0.10100
H 	H 	0.10630 0.31845 0.92663 0.10900
C 	C 	0.15583 0.45247 0.93894 0.79000
F 	F 	0.37314 0.33931 0.95867 -0.42600
F 	F 	0.26283 0.23787 0.91162 -0.46800
F 	F 	0.33151 0.29397 0.00137 -0.43700
F 	F 	0.16280 0.48348 0.90800 -0.42500
F 	F 	0.18470 0.50423 0.98821 -0.40500
F 	F 	0.08081 0.40594 0.91399 -0.37100
F 	F 	0.89375 0.03013 0.07857 -0.48500
C 	C 	0.92563 0.18880 0.44323 0.08800
C 	C 	0.87296 0.11610 0.41832 -0.03500
C 	C 	0.79649 0.09136 0.38887 -0.05200
C 	C 	0.77569 0.14025 0.39638 0.00300
C 	C 	0.82973 0.21283 0.42936 0.09600
C 	C 	0.90440 0.23784 0.44838 -0.12500
C 	C 	0.96249 0.31659 0.47834 0.75900
H 	H 	0.98395 0.20743 0.46316 0.05900
H 	H 	0.71788 0.12156 0.37958 0.09600
C 	C 	0.73688 0.01312 0.35396 0.71400
F 	F 	0.02500 0.32947 0.47983 -0.35800
F 	F 	0.98342 0.34477 0.53008 -0.44000
F 	F 	0.93436 0.35071 0.45376 -0.41200
C 	C 	0.72548 0.62207 0.44086 -0.00100
C 	C 	0.75356 0.57949 0.43484 0.08600
C 	C 	0.79459 0.58950 0.41291 -0.13400
C 	C 	0.81995 0.54013 0.40135 0.79300
F 	F 	0.76335 0.47030 0.37716 -0.43200
F 	F 	0.88041 0.55608 0.44843 -0.43100
F 	F 	0.84046 0.54696 0.36745 -0.41400
C 	C 	0.39881 0.20422 0.44048 0.01700
C 	C 	0.45993 0.21284 0.48376 0.09200
C 	C 	0.45070 0.18562 0.51716 -0.11900
C 	C 	0.38198 0.15786 0.51014 0.09200
C 	C 	0.32083 0.14987 0.46710 -0.00200
C 	C 	0.32865 0.17140 0.43085 -0.06900
C 	C 	0.26180 0.15503 0.38011 0.77600
H 	H 	0.40619 0.22310 0.41416 0.09300
H 	H 	0.37570 0.14182 0.53789 0.08900
C 	C 	0.51409 0.18749 0.56091 0.79400
F 	F 	0.28238 0.18741 0.35357 -0.46200
F 	F 	0.22233 0.17888 0.39153 -0.47100
F 	F 	0.21666 0.08265 0.34656 -0.45800
F 	F 	0.56527 0.25579 0.60291 -0.42700
F 	F 	0.54871 0.16507 0.54191 -0.42000
F 	F 	0.48895 0.14346 0.57971 -0.40500
C 	C 	0.77004 0.12801 0.89965 -0.00700
C 	C 	0.81995 0.20087 0.92261 0.10300
C 	C 	0.89156 0.22575 0.93426 -0.15100
C 	C 	0.91752 0.18018 0.93495 0.08800
C 	C 	0.87050 0.10926 0.91934 -0.04700
C 	C 	0.79387 0.08116 0.89490 -0.03800
H 	H 	0.71377 0.10828 0.88795 0.09300
H 	H 	0.97544 0.20090 0.95082 0.03600
C 	C 	0.94191 0.30139 0.94895 0.79700
F 	F 	0.98115 0.34474 0.00299 -0.43700
F 	F 	0.90106 0.32526 0.92111 -0.42000
F 	F 	0.99192 0.30607 0.93670 -0.43300
C 	C 	0.80814 0.59560 0.92528 0.00200
C 	C 	0.77764 0.59471 0.95426 0.09900
H 	H 	0.81489 0.55259 0.91172 0.10600
C 	C 	0.86447 0.65247 0.88349 0.77200
F 	F 	0.85377 0.58725 0.85953 -0.41400
C 	C 	0.44104 0.17609 0.00154 0.02200
C 	C 	0.44189 0.18864 0.96085 0.09400
C 	C 	0.37413 0.16155 0.91206 -0.12100
C 	C 	0.30785 0.13200 0.90822 0.10500
C 	C 	0.30846 0.12744 0.95158 0.02100
C 	C 	0.37387 0.14148 0.99587 -0.06900
C 	C 	0.37299 0.12041 0.03722 0.78200
H 	H 	0.49286 0.19419 0.03793 0.09400
H 	H 	0.25648 0.11633 0.87268 0.09900
C 	C 	0.37292 0.16872 0.86557 0.79500
F 	F 	0.42806 0.10697 0.05975 -0.43500
F 	F 	0.30573 0.05958 0.01463 -0.45700
F 	F 	0.38544 0.17488 0.07709 -0.42200
F 	F 	0.41707 0.14905 0.85743 -0.43900
F 	F 	0.39900 0.23824 0.87614 -0.42000
F 	F 	0.30177 0.12587 0.81882 -0.44000
Zn	Zn	0.00682 0.00292 0.92936 1.22000
C 	C 	0.02432 0.00823 0.77718 0.26700
C 	C 	0.02326 0.00463 0.73011 -0.08200
C 	C 	0.01034 0.00230 0.22503 -0.12400
F 	F 	0.81221 0.05699 0.07780 -0.43800
H 	H 	0.69220 0.61251 0.45612 0.09200
F 	F 	0.66248 0.58532 0.97032 -0.41300
C 	C 	0.03370 0.00635 0.10008 0.27000
C 	C 	0.02945 0.00159 0.14381 -0.03200
C 	C 	0.82523 0.01971 0.04597 0.73100
C 	C 	0.83163 0.65236 0.91502 -0.05400
F 	F 	0.83119 0.66809 0.84377 -0.43200
C 	C 	0.81596 0.64877 0.40494 0.07400
C 	C 	0.76805 0.65024 0.97208 -0.13700
C 	C 	0.82407 0.00599 0.54865 0.70500
F 	F 	0.82686 0.04743 0.01238 -0.43200
C 	C 	0.37573 0.63735 0.53823 -0.05000
F 	F 	0.77508 0.65303 0.04932 -0.46900
C 	C 	0.74290 0.67862 0.42956 -0.07800
H 	H 	0.85356 0.66115 0.39331 0.10700
C 	C 	0.73110 0.64813 0.00078 0.79800
C 	C 	0.39177 0.64939 0.05170 -0.05100
C 	C 	0.37859 0.65986 0.50175 0.09900
F 	F 	0.93997 0.70283 0.91716 -0.43100
C 	C 	0.39690 0.67292 0.01618 0.10700
N 	N 	0.43393 0.74797 0.03332 -0.13600
C 	C 	0.59855 0.81664 0.00388 0.02200
C 	C 	0.52890 0.80494 0.96921 0.02000
C 	C 	0.47432 0.78187 0.97831 -0.05600
C 	C 	0.48979 0.77238 0.02332 0.10000
C 	C 	0.56002 0.78547 0.05842 -0.05100
C 	C 	0.61415 0.80747 0.04878 0.01900
C 	C 	0.30093 0.83686 0.00220 0.03700
C 	C 	0.38770 0.77733 0.02198 0.10300
C 	C 	0.30920 0.73332 0.98775 -0.04700
C 	C 	0.26653 0.76317 0.97810 0.01600
H 	H 	0.41821 0.68740 0.09230 0.10300
H 	H 	0.51692 0.81324 0.93502 0.09700
H 	H 	0.41999 0.77073 0.95025 0.08000
H 	H 	0.57241 0.77823 0.09306 0.08300
H 	H 	0.66809 0.81714 0.07607 0.06500
H 	H 	0.28094 0.67634 0.96825 0.10300
H 	H 	0.20654 0.72892 0.95094 0.10400
N 	N 	0.41474 0.73475 0.51814 -0.13700
C 	C 	0.57254 0.81803 0.48391 0.02400
C 	C 	0.48285 0.82351 0.49893 -0.04800
C 	C 	0.46703 0.76203 0.50489 0.10400
C 	C 	0.51085 0.73392 0.50575 -0.05100
C 	C 	0.56228 0.76109 0.49446 0.01800
C 	C 	0.27174 0.81103 0.48400 0.02000
C 	C 	0.32072 0.82702 0.53643 0.02100
C 	C 	0.36552 0.79940 0.54716 -0.04900
C 	C 	0.36181 0.75571 0.50564 0.09900
C 	C 	0.31001 0.73700 0.45271 -0.05300
C 	C 	0.26459 0.76389 0.44202 0.02300
H 	H 	0.40213 0.67597 0.57863 0.09100
H 	H 	0.50580 0.69173 0.51582 0.09200
H 	H 	0.59453 0.73818 0.49429 0.10700
H 	H 	0.40474 0.81354 0.58790 0.09400
H 	H 	0.30747 0.70455 0.42035 0.08800
H 	H 	0.22556 0.74999 0.40128 0.09300
C 	C 	0.86163 0.77534 0.93389 0.33100
O 	O 	0.93378 0.82177 0.96900 -0.41100
O 	O 	0.82040 0.78431 0.89516 -0.39600
C 	C 	0.82988 0.76423 0.41859 0.33100
O 	O 	0.90117 0.81003 0.45750 -0.39700
O 	O 	0.79385 0.77617 0.37990 -0.38000
C 	C 	0.97544 0.82360 0.60131 -0.07900
H 	H 	0.99307 0.82180 0.63934 0.06900
C 	C 	0.93155 0.74845 0.55627 -0.14900
H 	H 	0.87788 0.71584 0.54980 0.08000
H 	H 	0.96413 0.72372 0.56655 0.10200
H 	H 	0.92105 0.74954 0.51908 0.10700
H 	H 	0.87870 0.82395 0.58955 0.08400
C 	C 	0.85645 0.82263 0.13633 -0.02300
H 	H 	0.86285 0.80706 0.10361 0.08100
H 	H 	0.79733 0.78656 0.11990 0.08900
C 	C 	0.90460 0.81227 0.18093 -0.14400
H 	H 	0.89925 0.82786 0.21418 0.01500
H 	H 	0.88612 0.75557 0.16533 0.10200
C 	C 	0.60653 0.82016 0.41951 -0.11000
C 	C 	0.52782 0.75931 0.37329 0.79800
H 	H 	0.64618 0.82629 0.37040 0.12300
F 	F 	0.51791 0.74302 0.32479 -0.39600
F 	F 	0.47774 0.77707 0.37172 -0.41600
F 	F 	0.51231 0.69955 0.37950 -0.40500
C 	C 	0.16308 0.81514 0.47108 0.01000
C 	C 	0.11589 0.84024 0.45564 -0.06900
C 	C 	0.04958 0.81350 0.45816 0.81200
H 	H 	0.14921 0.77272 0.48093 0.10800
F 	F 	0.04458 0.76538 0.47721 -0.41700
F 	F 	0.98469 0.78064 0.40790 -0.49900
C 	C 	0.65357 0.79482 0.95432 -0.12800
C 	C 	0.70512 0.82242 0.94287 0.08800
H 	H 	0.70200 0.78753 0.91114 0.07900
C 	C 	0.59289 0.71641 0.92124 0.79700
F 	F 	0.52750 0.70699 0.88330 -0.42600
F 	F 	0.58148 0.68929 0.95300 -0.40700
F 	F 	0.61142 0.67785 0.89545 -0.41000
F 	F 	0.10083 0.83678 0.82407 -0.42700
F 	F 	0.22410 0.81427 0.05451 -0.40400
C 	C 	0.79263 0.69467 0.41492 -0.01300
C 	C 	0.70934 0.72220 0.43380 0.77200
F 	F 	0.65725 0.69444 0.44384 -0.43200
F 	F 	0.67428 0.72328 0.38636 -0.43000
F 	F 	0.76462 0.79058 0.47475 -0.47400
C 	C 	0.79458 0.70847 0.96385 0.09000
C 	C 	0.82723 0.71034 0.93634 -0.02000
H 	H 	0.79169 0.75337 0.97999 0.06000
F 	F 	0.72029 0.70335 0.01005 -0.43600
C 	C 	0.73784 0.00225 0.86625 0.68000
F 	F 	0.67245 0.00245 0.31343 -0.42800
C 	C 	0.65648 0.84156 0.99446 0.10000
H 	H 	0.96374 0.84400 0.19600 0.07500
C 	C 	0.22774 0.84361 0.47297 0.09500
C 	C 	0.62713 0.84703 0.47230 0.11000
C 	C 	0.66061 0.84868 0.41034 0.11800
C 	C 	0.53410 0.85018 0.48751 0.02500
H 	H 	0.45676 0.85155 0.50411 0.11100
H 	H 	0.02618 0.85609 0.60422 0.13300
H 	H 	0.90821 0.85685 0.55363 0.09300
C 	C 	0.92920 0.85715 0.59240 -0.07700
H 	H 	0.25912 0.85695 0.91768 0.10200
C 	C 	0.42161 0.85123 0.04746 -0.04200
Zn	Zn	0.83125 0.86832 0.37769 1.19500
F 	F 	0.75891 0.97657 0.33053 -0.42400
F 	F 	0.75901 0.96452 0.84280 -0.42500
C 	C 	0.00529 0.99928 0.26883 0.46300
F 	F 	0.66908 0.98522 0.82629 -0.38300
H 	H 	0.83262 0.90021 0.12243 0.09000
F 	F 	0.87698 0.99292 0.57675 -0.43500
Zn	Zn	0.99120 0.99310 0.42233 1.22100
F 	F 	0.32475 0.92543 0.10125 -0.40400
F 	F 	0.21731 0.90709 0.08655 -0.40900
F 	F 	0.05636 0.87011 0.49191 -0.51200
H 	H 	0.15249 0.91970 0.01136 0.07300
C 	C 	0.37859 0.88077 0.03675 0.01600
H 	H 	0.40566 0.93781 0.05493 0.11700
H 	H 	0.48151 0.88574 0.07494 0.09400
H 	H 	0.54439 0.89632 0.48185 0.10500
H 	H 	0.32533 0.86219 0.56895 0.08900
O 	O 	0.04362 0.97074 0.79847 -0.35200
O 	O 	0.04108 0.88374 0.87007 -0.38500
O 	O 	0.97685 0.98799 0.85877 -0.87700
O 	O 	0.10610 0.98329 0.94873 -0.38300
Zn	Zn	0.85018 0.87458 0.89006 1.19400
Zn	Zn	0.98765 0.92190 0.98728 1.18700
C 	C 	0.81622 0.92043 0.96035 0.35400
O 	O 	0.79250 0.89880 0.91041 -0.38700
O 	O 	0.88592 0.94475 0.99646 -0.42700
O 	O 	0.94496 0.90653 0.91089 -0.77000
O 	O 	0.02641 0.95282 0.06627 -0.33000
Zn	Zn	0.00207 0.92703 0.83251 1.22000
C 	C 	0.09773 0.92488 0.92024 0.32100
H 	H 	0.92343 0.96957 0.83454 0.18800
O 	O 	0.02911 0.96467 0.29127 -0.43400
O 	O 	0.02896 0.87503 0.36256 -0.40800
O 	O 	0.96262 0.97888 0.35214 -0.87100
O 	O 	0.08794 0.97032 0.44229 -0.38100
Zn	Zn	0.96277 0.90990 0.47727 1.20700
C 	C 	0.79329 0.91924 0.44371 0.36200
O 	O 	0.77365 0.89723 0.39462 -0.38600
O 	O 	0.85957 0.93678 0.48143 -0.39900
C 	C 	0.01328 0.99045 0.59081 0.34300
O 	O 	0.92609 0.89686 0.40205 -0.75600
O 	O 	0.01068 0.94109 0.55718 -0.35300
Zn	Zn	0.99095 0.92061 0.32673 1.18000
C 	C 	0.07837 0.91092 0.41438 0.33500
H 	H 	0.90923 0.96013 0.32727 0.19000
C 	C 	0.02483 0.99028 0.64025 0.06400
C 	C 	0.97453 0.93121 0.63845 0.00700
C 	C 	0.97330 0.93965 0.68310 0.01300
H 	H 	0.93484 0.89454 0.68183 0.03800
C 	C 	0.95112 0.95096 0.17134 0.09500
C 	C 	0.96179 0.95051 0.13130 -0.02300
H 	H 	0.91608 0.91218 0.08995 0.07200
C 	C 	0.87489 0.89891 0.15561 -0.12200
H 	H 	0.86803 0.91382 0.18811 0.06200
C 	C 	0.73444 0.90311 0.45291 0.01600
C 	C 	0.75163 0.93631 0.50438 -0.01000
C 	C 	0.69932 0.90443 0.51418 0.00500
H 	H 	0.71419 0.92547 0.55438 0.10300
C 	C 	0.24811 0.90081 0.46210 -0.12900
C 	C 	0.19862 0.92280 0.44353 0.07800
C 	C 	0.13242 0.89225 0.43949 -0.01400
H 	H 	0.21064 0.96260 0.43104 0.08900
C 	C 	0.32088 0.93637 0.46803 0.79400
F 	F 	0.31645 0.89167 0.42736 -0.42200
F 	F 	0.37892 0.95232 0.51651 -0.41000
F 	F 	0.33690 0.99896 0.46589 -0.40400
C 	C 	0.71389 0.91334 0.02503 -0.01400
C 	C 	0.76135 0.89472 0.97237 -0.02200
C 	C 	0.76570 0.94103 0.01376 -0.01600
H 	H 	0.71712 0.94786 0.05701 0.10800
C 	C 	0.23717 0.87242 0.93866 0.02200
C 	C 	0.25597 0.86760 0.98534 0.09900
C 	C 	0.22716 0.88669 0.01298 -0.10700
C 	C 	0.17682 0.90712 0.99154 0.10000
C 	C 	0.15552 0.90910 0.94354 0.00700
C 	C 	0.18847 0.89447 0.91783 -0.04600
C 	C 	0.16852 0.89751 0.86642 0.77500
C 	C 	0.24842 0.88339 0.06439 0.79300
F 	F 	0.22138 0.90224 0.85728 -0.40900
F 	F 	0.16458 0.95599 0.86849 -0.44700
F 	F 	0.72129 0.98622 0.38444 -0.39200
F 	F 	0.73084 0.98208 0.90196 -0.37100
