data_crystal

_cell_length_a 19.72299
_cell_length_b 21.23007
_cell_length_c 41.02533
_cell_angle_alpha 60.38501
_cell_angle_beta  119.35961
_cell_angle_gamma 133.33927

_symmetry_space_group_name_	'P 1'
_symmetry_space_group_name_H-M	'P 1'

loop_
_symmetry_equiv_pos_as_xyz
  x,y,z

loop_
_atom_site_label
_atom_site_type_symbol
_atom_site_fract_x
_atom_site_fract_y
_atom_site_fract_z
_atom_site_charge
C 	C 	0.73599 0.31801 0.99661 0.19200
N 	N 	0.78767 0.39476 0.00724 -0.08800
C 	C 	0.74083 0.42181 0.00649 0.18500
N 	N 	0.64397 0.37218 0.99565 -0.08100
C 	C 	0.59231 0.29644 0.98493 0.19400
N 	N 	0.63877 0.27122 0.98414 -0.10100
C 	C 	0.70677 0.32031 0.48404 0.18000
N 	N 	0.61848 0.25529 0.49164 -0.08400
C 	C 	0.57270 0.27617 0.49609 0.19200
N 	N 	0.61573 0.36198 0.49356 -0.08900
C 	C 	0.70708 0.42633 0.48963 0.18900
N 	N 	0.75302 0.40580 0.48459 -0.10100
C 	C 	0.29811 0.62418 0.18018 0.17700
N 	N 	0.24940 0.54090 0.17641 -0.06700
C 	C 	0.29593 0.51924 0.17275 0.18900
N 	N 	0.38931 0.58125 0.17160 -0.09200
C 	C 	0.43539 0.66607 0.17159 0.18900
N 	N 	0.39048 0.68722 0.17655 -0.10400
C 	C 	0.26638 0.61561 0.67290 0.17700
N 	N 	0.21442 0.53777 0.66280 -0.08800
C 	C 	0.26105 0.50613 0.66734 0.17300
N 	N 	0.35696 0.55153 0.68196 -0.09000
C 	C 	0.40904 0.63471 0.68565 0.19700
N 	N 	0.36363 0.66267 0.68491 -0.08500
Co	Co	0.03834 0.09868 0.07603 1.19300
Co	Co	0.10143 0.03256 0.04436 1.18100
C 	C 	0.91174 0.73992 0.04052 0.29500
Co	Co	0.11610 0.88820 0.04442 1.20700
C 	C 	0.28594 0.06530 0.05327 0.26500
O 	O 	0.88488 0.95957 0.17185 -0.35900
C 	C 	0.94358 0.93763 0.19590 0.33100
O 	O 	0.92490 0.81156 0.12977 -0.39500
O 	O 	0.10588 0.13640 0.03842 -0.39000
C 	C 	0.12673 0.21033 0.13196 0.29200
C 	C 	0.74772 0.89473 0.10182 0.31200
C 	C 	0.12189 0.78346 0.12800 0.31300
O 	O 	0.10063 0.78193 0.09257 -0.35700
O 	O 	0.09252 0.81365 0.13593 -0.31400
O 	O 	0.06005 0.14159 0.15144 -0.37200
O 	O 	0.13922 0.20165 0.10540 -0.28600
O 	O 	0.78480 0.98005 0.09273 -0.31100
O 	O 	0.79001 0.86912 0.09938 -0.33300
O 	O 	0.07370 0.92781 0.06452 -0.73600
C 	C 	0.92047 0.16651 0.04145 0.33400
O 	O 	0.94892 0.17438 0.07621 -0.33400
O 	O 	0.97510 0.80378 0.01950 -0.31500
O 	O 	0.89484 0.75903 0.06105 -0.31500
O 	O 	0.25192 0.98099 0.07008 -0.23800
O 	O 	0.24833 0.09851 0.05337 -0.32700
Co	Co	0.01136 0.09709 0.56751 1.18700
Co	Co	0.07934 0.02339 0.54293 1.17900
C 	C 	0.88406 0.72507 0.54055 0.29000
Co	Co	0.09006 0.87119 0.54766 1.18500
C 	C 	0.26291 0.04216 0.56826 0.28400
O 	O 	0.98471 0.06043 0.66985 -0.33900
C 	C 	0.97226 0.98404 0.69139 0.33500
O 	O 	0.90946 0.81459 0.63068 -0.37800
O 	O 	0.08971 0.13179 0.53550 -0.40900
C 	C 	0.10056 0.22520 0.61147 0.32100
C 	C 	0.74517 0.87090 0.63199 0.30200
C 	C 	0.08777 0.77177 0.62963 0.33200
O 	O 	0.05967 0.76271 0.59524 -0.34100
O 	O 	0.07553 0.82030 0.63453 -0.31700
O 	O 	0.01373 0.20326 0.59964 -0.35300
O 	O 	0.11909 0.18649 0.60291 -0.32300
O 	O 	0.78079 0.94900 0.63402 -0.32400
O 	O 	0.77707 0.86404 0.61317 -0.31800
O 	O 	0.03758 0.91436 0.55999 -0.74900
C 	C 	0.86950 0.14774 0.53108 0.29300
O 	O 	0.82339 0.08701 0.55877 -0.31800
O 	O 	0.94946 0.79190 0.52028 -0.34100
O 	O 	0.86965 0.73871 0.56466 -0.27900
O 	O 	0.22575 0.95666 0.57770 -0.29600
O 	O 	0.22085 0.06815 0.57045 -0.34500
C 	C 	0.07587 0.04822 0.84648 -0.05300
C 	C 	0.07233 0.03583 0.81494 -0.04500
C 	C 	0.91540 0.91107 0.84884 -0.01100
C 	C 	0.97726 0.96226 0.73173 -0.00200
H 	H 	0.14039 0.10543 0.85802 0.10100
H 	H 	0.13315 0.08492 0.80189 0.12300
H 	H 	0.84677 0.84232 0.80514 0.11800
H 	H 	0.85514 0.86156 0.86223 0.13200
C 	C 	0.92885 0.88607 0.32417 0.02100
C 	C 	0.93479 0.90121 0.35552 0.00700
C 	C 	0.08482 0.04751 0.34585 -0.02500
C 	C 	0.07890 0.03235 0.31451 -0.01800
H 	H 	0.86749 0.82400 0.31566 0.12400
H 	H 	0.87943 0.84952 0.37153 0.11600
H 	H 	0.14615 0.10960 0.35434 0.13500
H 	H 	0.13427 0.08401 0.29850 0.11600
C 	C 	0.19141 0.34884 0.67722 0.04800
C 	C 	0.21225 0.43138 0.65107 0.06800
C 	C 	0.22088 0.45053 0.61421 -0.08200
C 	C 	0.21038 0.38751 0.60517 0.08900
C 	C 	0.17781 0.30164 0.62960 0.02700
C 	C 	0.18419 0.28832 0.66800 -0.09100
C 	C 	0.20014 0.22001 0.70044 0.78500
H 	H 	0.19260 0.33644 0.70645 0.10100
H 	H 	0.21685 0.40178 0.57718 0.13400
C 	C 	0.24842 0.54033 0.58561 0.79500
F 	F 	0.29244 0.26395 0.72304 -0.39300
F 	F 	0.18911 0.16458 0.68693 -0.43100
F 	F 	0.13601 0.16849 0.72311 -0.45200
F 	F 	0.34632 0.60266 0.59585 -0.40400
F 	F 	0.20152 0.56788 0.58514 -0.38100
F 	F 	0.22434 0.53624 0.54851 -0.35300
C 	C 	0.65709 0.74597 0.68158 0.07700
C 	C 	0.65438 0.79445 0.64280 0.00500
C 	C 	0.57029 0.78901 0.61873 -0.04200
C 	C 	0.49785 0.74928 0.63533 0.04900
C 	C 	0.50027 0.70171 0.67415 0.09000
C 	C 	0.58164 0.70152 0.69792 -0.10400
C 	C 	0.58710 0.65232 0.74029 0.78900
H 	H 	0.72093 0.74814 0.69958 0.08600
H 	H 	0.43510 0.74844 0.61724 0.17600
C 	C 	0.56110 0.83224 0.57569 0.78100
F 	F 	0.68064 0.68155 0.76071 -0.41100
F 	F 	0.53215 0.56175 0.74380 -0.38900
F 	F 	0.55301 0.66644 0.75671 -0.39600
F 	F 	0.59839 0.81823 0.56089 -0.39000
F 	F 	0.61035 0.92314 0.56924 -0.39700
F 	F 	0.46596 0.79660 0.55590 -0.34700
C 	C 	0.14590 0.61076 0.68267 0.05400
C 	C 	0.22016 0.65723 0.66508 0.08100
C 	C 	0.26290 0.74961 0.64660 -0.09100
C 	C 	0.24059 0.79416 0.65155 0.06600
C 	C 	0.15239 0.74558 0.65933 0.02500
C 	C 	0.11156 0.65453 0.67999 -0.04600
C 	C 	0.03822 0.60566 0.70205 0.77300
H 	H 	0.11624 0.54178 0.69903 0.11400
H 	H 	0.28036 0.86603 0.64117 0.13400
C 	C 	0.32265 0.79816 0.61826 0.78800
F 	F 	0.07697 0.58457 0.74111 -0.37900
F 	F 	0.95748 0.52736 0.69092 -0.33900
F 	F 	0.01110 0.65668 0.69588 -0.39000
F 	F 	0.29182 0.74009 0.59971 -0.39400
F 	F 	0.41814 0.83586 0.63757 -0.39500
F 	F 	0.31411 0.86556 0.59009 -0.40000
C 	C 	0.21916 0.29439 0.18144 0.07000
C 	C 	0.19286 0.29677 0.14242 0.01800
C 	C 	0.20454 0.37503 0.11394 -0.07600
C 	C 	0.21993 0.43920 0.12398 0.04000
C 	C 	0.24244 0.43533 0.16283 0.08000
C 	C 	0.24088 0.36153 0.19191 -0.09500
C 	C 	0.26648 0.35628 0.23419 0.78600
H 	H 	0.21664 0.23709 0.20349 0.09700
H 	H 	0.22253 0.49652 0.10187 0.11700
C 	C 	0.20775 0.39343 0.07383 0.78700
F 	F 	0.24212 0.27215 0.25737 -0.41100
F 	F 	0.21781 0.37458 0.23940 -0.36800
F 	F 	0.36419 0.41807 0.24603 -0.36300
F 	F 	0.11677 0.33861 0.05339 -0.41100
F 	F 	0.26783 0.37772 0.07636 -0.39100
F 	F 	0.24220 0.48136 0.05351 -0.37400
C 	C 	0.51025 0.78138 0.11722 0.04400
C 	C 	0.52155 0.73701 0.15642 0.07200
C 	C 	0.60696 0.74259 0.17714 -0.10000
C 	C 	0.67412 0.78340 0.15710 0.07700
C 	C 	0.66274 0.82776 0.11789 -0.00000
C 	C 	0.57642 0.82072 0.09704 -0.05000
C 	C 	0.55156 0.85119 0.05333 0.77800
H 	H 	0.44505 0.77786 0.10157 0.12300
H 	H 	0.73751 0.78399 0.17237 0.07900
C 	C 	0.62452 0.70126 0.22025 0.78900
F 	F 	0.45548 0.78968 0.03880 -0.37400
F 	F 	0.60447 0.85936 0.03672 -0.39400
F 	F 	0.56773 0.93243 0.04266 -0.36900
F 	F 	0.57732 0.61075 0.22676 -0.37400
F 	F 	0.59124 0.71334 0.23806 -0.38700
F 	F 	0.72155 0.74024 0.23699 -0.41400
C 	C 	0.10364 0.64025 0.16286 0.07900
C 	C 	0.15936 0.73215 0.15957 0.01000
C 	C 	0.25832 0.77702 0.17760 -0.06000
C 	C 	0.30351 0.73712 0.18844 0.04300
C 	C 	0.24920 0.65030 0.18443 0.08300
C 	C 	0.14786 0.59714 0.17796 -0.09800
C 	C 	0.08809 0.49595 0.19089 0.79000
H 	H 	0.02636 0.60325 0.15221 0.10000
H 	H 	0.38102 0.77516 0.19809 0.13100
C 	C 	0.31722 0.86975 0.18256 0.77900
F 	F 	0.00750 0.46194 0.19984 -0.37000
F 	F 	0.14013 0.46780 0.22371 -0.36800
F 	F 	0.05838 0.46152 0.16159 -0.37900
F 	F 	0.39981 0.88803 0.21174 -0.37400
F 	F 	0.26500 0.87695 0.19218 -0.39800
F 	F 	0.34294 0.93247 0.14855 -0.38000
C 	C 	0.74733 0.17365 0.48102 0.07700
C 	C 	0.84279 0.21018 0.50270 0.02200
C 	C 	0.90073 0.29927 0.50570 -0.06500
C 	C 	0.85644 0.33841 0.49706 0.04200
C 	C 	0.75766 0.29524 0.48088 0.07300
C 	C 	0.70613 0.21877 0.46774 -0.09300
C 	C 	0.60834 0.18491 0.43974 0.78900
H 	H 	0.70361 0.10813 0.47620 0.11600
H 	H 	0.89877 0.40109 0.50425 0.12000
F 	F 	0.59664 0.14845 0.41564 -0.38200
F 	F 	0.59798 0.25355 0.41676 -0.36800
F 	F 	0.53740 0.11941 0.46003 -0.38400
F 	F 	0.04564 0.31548 0.52031 -0.43600
C 	C 	0.76518 0.63343 0.49294 0.06600
C 	C 	0.81707 0.63674 0.53148 0.02500
C 	C 	0.83088 0.56843 0.55580 -0.08400
C 	C 	0.81076 0.51105 0.53940 0.04600
C 	C 	0.76190 0.50959 0.50068 0.06300
C 	C 	0.74177 0.57356 0.47676 -0.09400
C 	C 	0.69244 0.57630 0.43430 0.78500
H 	H 	0.74996 0.68253 0.47470 0.10500
H 	H 	0.82537 0.46150 0.55782 0.10400
C 	C 	0.86564 0.55397 0.59924 0.78900
F 	F 	0.70867 0.65878 0.41362 -0.40200
F 	F 	0.59467 0.51128 0.43028 -0.36000
F 	F 	0.72679 0.56107 0.41857 -0.38600
F 	F 	0.86027 0.59799 0.61284 -0.40000
C 	C 	0.50321 0.16451 0.55214 0.04400
C 	C 	0.48876 0.20531 0.51255 0.07400
C 	C 	0.40026 0.19366 0.49170 -0.09600
C 	C 	0.33241 0.15046 0.51182 0.07000
C 	C 	0.34619 0.10857 0.55127 0.00400
C 	C 	0.43528 0.12116 0.57228 -0.05900
C 	C 	0.46002 0.09082 0.61603 0.77800
H 	H 	0.57080 0.17247 0.56780 0.11100
H 	H 	0.26721 0.14681 0.49656 0.07500
C 	C 	0.37961 0.23052 0.44826 0.78600
F 	F 	0.55698 0.14974 0.63074 -0.38800
F 	F 	0.43909 0.00737 0.62688 -0.39700
F 	F 	0.41006 0.08725 0.63230 -0.40600
F 	F 	0.41554 0.21934 0.43134 -0.36900
F 	F 	0.42192 0.32054 0.43989 -0.36500
F 	F 	0.28180 0.18686 0.43217 -0.41900
C 	C 	0.85653 0.32369 0.98702 0.05500
C 	C 	0.78253 0.27710 0.00471 0.06400
C 	C 	0.74301 0.18609 0.02486 -0.09600
C 	C 	0.76696 0.14174 0.02096 0.06700
C 	C 	0.85448 0.19107 0.01240 0.01400
C 	C 	0.89328 0.28125 0.99078 -0.05300
C 	C 	0.96632 0.33015 0.96853 0.80000
H 	H 	0.88425 0.39189 0.96980 0.11800
H 	H 	0.72959 0.07035 0.03275 0.11900
C 	C 	0.68548 0.13883 0.05396 0.79000
F 	F 	0.92616 0.34867 0.92944 -0.37600
F 	F 	0.99578 0.28051 0.97542 -0.37600
F 	F 	0.58909 0.08555 0.03734 -0.38900
F 	F 	0.70223 0.19844 0.06696 -0.38600
F 	F 	0.71023 0.08499 0.08584 -0.41600
C 	C 	0.78220 0.57246 0.98702 0.05000
C 	C 	0.79363 0.50618 0.01616 0.06900
C 	C 	0.82898 0.50992 0.05523 -0.09600
C 	C 	0.85641 0.58262 0.06382 0.07000
C 	C 	0.84614 0.64934 0.03430 0.01200
C 	C 	0.79895 0.63834 0.99621 -0.05600
C 	C 	0.77156 0.70012 0.96461 0.78100
H 	H 	0.75313 0.56862 0.95722 0.12300
H 	H 	0.89086 0.59018 0.09312 0.08700
C 	C 	0.83801 0.43705 0.08762 0.78800
F 	F 	0.75304 0.73155 0.97959 -0.39000
F 	F 	0.89969 0.43319 0.08283 -0.38100
F 	F 	0.74894 0.35527 0.08720 -0.37500
F 	F 	0.87359 0.45252 0.12349 -0.37700
C 	C 	0.44764 0.14071 0.99627 0.05700
C 	C 	0.48831 0.23196 0.98352 0.07100
C 	C 	0.43874 0.25976 0.98163 -0.09600
C 	C 	0.37466 0.20510 0.00525 0.06200
C 	C 	0.34981 0.11825 0.02654 0.02400
C 	C 	0.38199 0.08297 0.01975 -0.09600
C 	C 	0.34873 0.98608 0.03714 0.80900
H 	H 	0.47126 0.11590 0.98970 0.13800
H 	H 	0.34392 0.23016 0.00691 0.10300
C 	C 	0.45385 0.34731 0.95489 0.78700
F 	F 	0.38684 0.96772 0.02510 -0.36400
F 	F 	0.25001 0.92840 0.02567 -0.49600
F 	F 	0.37849 0.96890 0.07698 -0.37300
F 	F 	0.49448 0.37821 0.92600 -0.39700
F 	F 	0.51319 0.41071 0.97581 -0.38700
F 	F 	0.36664 0.33564 0.93754 -0.39300
Co	Co	0.93344 0.91674 0.12531 1.20200
Co	Co	0.91978 0.06432 0.12327 1.18300
C 	C 	0.06401 0.99873 0.97249 0.34600
O 	O 	0.13165 0.98698 0.99341 -0.34100
O 	O 	0.93389 0.12017 0.03564 -0.31200
Co	Co	0.91988 0.92343 0.62335 1.19900
Co	Co	0.89979 0.07327 0.61538 1.18500
C 	C 	0.06741 0.99609 0.47373 0.35400
O 	O 	0.12508 0.97320 0.49832 -0.36700
O 	O 	0.92788 0.14485 0.52499 -0.28000
C 	C 	0.91134 0.89926 0.81683 -0.00900
C 	C 	0.02740 0.99654 0.93228 -0.00400
F 	F 	0.03408 0.36130 0.55551 -0.43600
F 	F 	0.04856 0.43754 0.49448 -0.37200
F 	F 	0.80975 0.46367 0.61655 -0.37500
F 	F 	0.68954 0.65521 0.93770 -0.37200
F 	F 	0.84548 0.77176 0.94618 -0.42400
O 	O 	0.97300 0.02506 0.10912 -0.75600
O 	O 	0.04594 0.98302 0.09518 -0.54000
O 	O 	0.94099 0.02536 0.59914 -0.74300
O 	O 	0.96717 0.96241 0.57201 -0.52700
C 	C 	0.04088 0.99756 0.43362 -0.03000
O 	O 	0.04067 0.02372 0.48492 -0.37000
C 	C 	0.02566 0.99256 0.40213 0.10600
C 	C 	0.01258 0.98218 0.36642 0.05300
O 	O 	0.98192 0.94245 0.67968 -0.32100
C 	C 	0.98203 0.95681 0.76366 0.10100
O 	O 	0.03219 0.01345 0.98809 -0.36300
F 	F 	0.04577 0.40990 0.97872 -0.36700
C 	C 	0.99021 0.96137 0.79991 0.08500
C 	C 	0.00877 0.99183 0.90021 0.07900
C 	C 	0.00858 0.35304 0.51924 0.77100
C 	C 	0.99762 0.98602 0.86367 0.10100
F 	F 	0.95930 0.58234 0.61001 -0.41300
O 	O 	0.97234 0.91335 0.18382 -0.32500
C 	C 	0.00105 0.95142 0.30358 0.02900
C 	C 	0.98757 0.94126 0.26772 0.12600
C 	C 	0.97161 0.93630 0.23610 -0.02800
Co	Co	0.00168 0.85174 0.09542 1.19100
Co	Co	0.97242 0.84401 0.59317 1.21000
