data_crystal

_cell_length_a 35.26861
_cell_length_b 35.86417
_cell_length_c 34.99211
_cell_angle_alpha 95.51986
_cell_angle_beta  95.52159
_cell_angle_gamma 125.38425

_symmetry_space_group_name_	'P 1'
_symmetry_space_group_name_H-M	'P 1'

loop_
_symmetry_equiv_pos_as_xyz
  x,y,z

loop_
_atom_site_label
_atom_site_type_symbol
_atom_site_fract_x
_atom_site_fract_y
_atom_site_fract_z
_atom_site_charge
C 	C 	0.97704 0.01597 0.99432 0.05400
C 	C 	0.95164 0.96778 0.99248 -0.09100
C 	C 	0.97476 0.94668 0.98954 0.05500
C 	C 	0.02324 0.97375 0.98865 -0.09100
C 	C 	0.04863 0.02185 0.99050 0.05400
C 	C 	0.02559 0.04301 0.99346 -0.09100
H 	H 	0.91401 0.94679 0.99293 0.05600
H 	H 	0.04109 0.95737 0.98620 0.05600
H 	H 	0.04520 0.08025 0.99465 0.05600
C 	C 	0.94141 0.99821 0.44268 0.05100
C 	C 	0.91557 0.95081 0.44497 -0.08700
C 	C 	0.93873 0.92966 0.44791 0.05100
C 	C 	0.98750 0.95580 0.44848 -0.08500
C 	C 	0.01330 0.00304 0.44628 0.04900
C 	C 	0.99029 0.02426 0.44329 -0.08400
H 	H 	0.87781 0.93063 0.44465 0.05500
H 	H 	0.00540 0.93944 0.45086 0.05400
H 	H 	0.01035 0.06094 0.44173 0.05400
Cu	Cu	0.65461 0.26017 0.99615 0.92800
Cu	Cu	0.67865 0.24993 0.90941 0.87100
Cu	Cu	0.68140 0.33173 0.94281 0.89700
Cu	Cu	0.66673 0.35287 0.02341 0.89500
C 	C 	0.68264 0.30173 0.07788 0.32600
O 	O 	0.58852 0.23890 0.00132 -0.36400
C 	C 	0.65917 0.29476 0.85721 0.32400
O 	O 	0.69727 0.33238 0.99695 -0.64200
O 	O 	0.64361 0.26278 0.94030 -0.64100
O 	O 	0.67700 0.22053 0.99099 -0.37700
O 	O 	0.72596 0.26117 0.94980 -0.44400
O 	O 	0.66474 0.32472 0.07054 -0.39300
O 	O 	0.72109 0.39909 0.94939 -0.38300
C 	C 	0.72167 0.42739 0.97699 0.30700
C 	C 	0.57156 0.26073 0.98884 0.30200
O 	O 	0.60033 0.30332 0.98280 -0.39100
O 	O 	0.69325 0.41163 0.00268 -0.39500
O 	O 	0.67566 0.26887 0.05090 -0.37000
C 	C 	0.71437 0.23381 0.97550 0.31100
O 	O 	0.67576 0.33076 0.88564 -0.39100
O 	O 	0.64722 0.25447 0.86491 -0.43200
H 	H 	0.73163 0.35009 0.00709 0.16300
H 	H 	0.60994 0.24584 0.92800 0.17300
Cu	Cu	0.71338 0.33608 0.44370 0.92800
Cu	Cu	0.72045 0.30245 0.52703 0.87100
Cu	Cu	0.64082 0.30631 0.49755 0.89800
Cu	Cu	0.62272 0.33294 0.42308 0.89500
C 	C 	0.67256 0.32209 0.36334 0.32500
O 	O 	0.73931 0.40376 0.44543 -0.36300
C 	C 	0.67964 0.32652 0.58166 0.32700
O 	O 	0.64005 0.29681 0.44268 -0.64100
O 	O 	0.71077 0.34166 0.50018 -0.64000
O 	O 	0.74899 0.30838 0.44310 -0.37200
O 	O 	0.70596 0.25841 0.48277 -0.44300
O 	O 	0.65190 0.34095 0.37566 -0.39600
O 	O 	0.57248 0.26894 0.49097 -0.38200
C 	C 	0.54513 0.27234 0.46529 0.30700
C 	C 	0.71893 0.42101 0.46109 0.30200
O 	O 	0.67584 0.39294 0.46770 -0.39300
O 	O 	0.56303 0.30546 0.44421 -0.39600
O 	O 	0.70352 0.32167 0.38766 -0.36800
C 	C 	0.73441 0.27059 0.45749 0.30700
O 	O 	0.64159 0.30536 0.55387 -0.39900
O 	O 	0.71835 0.33154 0.57473 -0.42700
H 	H 	0.62018 0.26371 0.42956 0.16400
H 	H 	0.72899 0.37399 0.51485 0.17200
C 	C 	0.68916 0.35006 0.76836 0.00500
C 	C 	0.67281 0.36907 0.74450 -0.04000
C 	C 	0.68159 0.37240 0.70634 -0.03900
C 	C 	0.70700 0.35689 0.69192 0.00400
C 	C 	0.72536 0.34015 0.71652 -0.04100
C 	C 	0.71639 0.33660 0.75451 -0.04000
C 	C 	0.71448 0.35790 0.65110 0.01000
C 	C 	0.67607 0.33738 0.62000 -0.17200
C 	C 	0.67721 0.34349 0.80763 0.00900
C 	C 	0.65623 0.29976 0.81818 -0.17200
H 	H 	0.65256 0.38039 0.75521 0.03900
H 	H 	0.66855 0.38682 0.68800 0.03900
H 	H 	0.74578 0.32897 0.70592 0.03400
H 	H 	0.73024 0.32301 0.77308 0.03500
H 	H 	0.74907 0.36932 0.64531 0.03300
H 	H 	0.64206 0.32767 0.62596 0.08500
H 	H 	0.68620 0.37313 0.82853 0.04100
H 	H 	0.64223 0.26963 0.79551 0.08000
C 	C 	0.71036 0.32566 0.26618 0.00800
C 	C 	0.72763 0.30683 0.24271 -0.04000
C 	C 	0.72965 0.31272 0.20377 -0.03700
C 	C 	0.71342 0.33674 0.18782 0.00600
C 	C 	0.69876 0.35776 0.21200 -0.03900
C 	C 	0.69776 0.35276 0.25102 -0.03900
C 	C 	0.71235 0.34105 0.14609 0.01100
C 	C 	0.69854 0.30376 0.11668 -0.16700
C 	C 	0.70667 0.31805 0.30696 0.01200
C 	C 	0.66890 0.31178 0.32311 -0.16500
H 	H 	0.73920 0.28741 0.25451 0.04000
H 	H 	0.74420 0.29906 0.18629 0.03900
H 	H 	0.68772 0.37769 0.20043 0.03800
H 	H 	0.68716 0.36995 0.26947 0.04200
H 	H 	0.71648 0.37157 0.13798 0.02800
H 	H 	0.69973 0.27567 0.12401 0.08700
H 	H 	0.73450 0.31919 0.32469 0.04300
H 	H 	0.63927 0.30627 0.30392 0.07800
C 	C 	0.77492 0.55822 0.46645 -0.01000
C 	C 	0.74765 0.56912 0.44562 -0.03000
C 	C 	0.76623 0.61556 0.44473 -0.04500
C 	C 	0.81225 0.65145 0.46473 0.01100
C 	C 	0.83920 0.64051 0.48620 -0.04500
C 	C 	0.82057 0.59401 0.48702 -0.03000
C 	C 	0.83299 0.70026 0.46167 0.00400
C 	C 	0.81262 0.72155 0.47574 -0.03700
C 	C 	0.83206 0.76767 0.47236 -0.04400
C 	C 	0.87192 0.79270 0.45489 0.01700
C 	C 	0.89211 0.77140 0.44066 -0.04300
C 	C 	0.87272 0.72535 0.44400 -0.03700
C 	C 	0.89345 0.84084 0.45295 -0.01100
C 	C 	0.91286 0.88118 0.45062 -0.03000
C 	C 	0.75654 0.51024 0.46554 0.04600
C 	C 	0.74001 0.46971 0.46411 -0.11200
H 	H 	0.71230 0.54161 0.42968 0.03700
H 	H 	0.74521 0.62362 0.42799 0.04100
H 	H 	0.87468 0.66798 0.50189 0.04100
H 	H 	0.84181 0.58584 0.50327 0.03700
H 	H 	0.78192 0.70247 0.48941 0.03900
H 	H 	0.81636 0.78397 0.48354 0.04100
H 	H 	0.92299 0.79059 0.42720 0.04100
H 	H 	0.88847 0.70913 0.43277 0.03900
C 	C 	0.79166 0.20006 0.44029 -0.01200
C 	C 	0.83052 0.21241 0.46785 -0.03100
C 	C 	0.84751 0.18555 0.46587 -0.04600
C 	C 	0.82572 0.14608 0.43630 0.01100
C 	C 	0.78761 0.13446 0.40808 -0.04600
C 	C 	0.77061 0.16137 0.41011 -0.03000
C 	C 	0.84196 0.11624 0.43563 0.00300
C 	C 	0.83781 0.09256 0.46650 -0.03700
C 	C 	0.85574 0.06652 0.46708 -0.04400
C 	C 	0.87790 0.06395 0.43682 0.01700
C 	C 	0.88112 0.08669 0.40552 -0.04400
C 	C 	0.86318 0.11273 0.40490 -0.03700
C 	C 	0.89975 0.04027 0.43899 -0.01200
C 	C 	0.91814 0.02053 0.44057 -0.03000
C 	C 	0.77100 0.22472 0.44505 0.04600
C 	C 	0.75448 0.24599 0.44978 -0.12100
H 	H 	0.84698 0.24227 0.49126 0.03300
H 	H 	0.87721 0.19505 0.48758 0.04000
H 	H 	0.77064 0.10415 0.38507 0.04100
H 	H 	0.74052 0.15155 0.38872 0.03800
H 	H 	0.82119 0.09478 0.49022 0.03800
H 	H 	0.85303 0.04896 0.49133 0.04100
H 	H 	0.89819 0.08485 0.38202 0.04100
H 	H 	0.86651 0.13083 0.38092 0.03900
C 	C 	0.15602 0.07582 0.45224 0.01700
C 	C 	0.17892 0.05856 0.46966 -0.04400
C 	C 	0.22771 0.08229 0.47215 -0.03700
C 	C 	0.25391 0.12345 0.45720 0.00400
C 	C 	0.23088 0.14062 0.43964 -0.03700
C 	C 	0.18206 0.11685 0.43718 -0.04400
C 	C 	0.30545 0.14877 0.46023 0.01100
C 	C 	0.32352 0.12800 0.44056 -0.04500
C 	C 	0.37239 0.15234 0.44298 -0.03100
C 	C 	0.40345 0.19751 0.46506 -0.00900
C 	C 	0.38551 0.21809 0.48512 -0.03000
C 	C 	0.33666 0.19381 0.48273 -0.04500
C 	C 	0.45350 0.22365 0.46544 0.04600
C 	C 	0.49540 0.24550 0.46574 -0.10800
C 	C 	0.10576 0.05120 0.44968 -0.01200
C 	C 	0.06364 0.02983 0.44796 -0.03000
H 	H 	0.15896 0.02682 0.48132 0.04100
H 	H 	0.24519 0.06885 0.48585 0.03900
H 	H 	0.25079 0.17227 0.42787 0.03900
H 	H 	0.16455 0.13031 0.42358 0.04100
H 	H 	0.29971 0.09324 0.42314 0.04000
H 	H 	0.38603 0.13627 0.42733 0.03700
H 	H 	0.40934 0.25304 0.50223 0.03900
H 	H 	0.32305 0.20999 0.49823 0.04100
C 	C 	0.79166 0.56563 0.97486 -0.01000
C 	C 	0.81114 0.58512 0.94278 -0.03000
C 	C 	0.83291 0.63246 0.94308 -0.04500
C 	C 	0.83527 0.66053 0.97551 0.01000
C 	C 	0.81588 0.64093 0.00763 -0.04400
C 	C 	0.79414 0.59365 0.00728 -0.03000
C 	C 	0.85872 0.71056 0.97614 0.00400
C 	C 	0.90734 0.74029 0.97570 -0.03800
C 	C 	0.93001 0.78804 0.97805 -0.04300
C 	C 	0.90425 0.80638 0.98086 0.01600
C 	C 	0.85560 0.77671 0.98092 -0.04300
C 	C 	0.83286 0.72892 0.97855 -0.03800
C 	C 	0.92795 0.85568 0.98400 -0.01000
C 	C 	0.94871 0.89710 0.98660 -0.03200
C 	C 	0.76772 0.51662 0.97415 0.04500
C 	C 	0.74734 0.47579 0.97482 -0.10800
H 	H 	0.80920 0.56362 0.91756 0.03900
H 	H 	0.84775 0.64728 0.91813 0.04100
H 	H 	0.81781 0.66237 0.03289 0.04100
H 	H 	0.77906 0.57876 0.03214 0.03800
H 	H 	0.92763 0.72648 0.97402 0.03900
H 	H 	0.96764 0.81080 0.97793 0.04100
H 	H 	0.83545 0.79066 0.98297 0.04100
H 	H 	0.79527 0.70621 0.97878 0.03900
C 	C 	0.90854 0.07665 0.99711 0.01500
C 	C 	0.89733 0.08865 0.96310 -0.04400
C 	C 	0.87279 0.10830 0.96367 -0.03700
C 	C 	0.85930 0.11606 0.99827 0.00200
C 	C 	0.87106 0.10455 0.03243 -0.03700
C 	C 	0.89558 0.08484 0.03182 -0.04300
C 	C 	0.83200 0.13526 0.99842 0.01000
C 	C 	0.78603 0.10950 0.97626 -0.04600
C 	C 	0.76155 0.12914 0.97373 -0.03000
C 	C 	0.78281 0.17463 0.99333 -0.01400
C 	C 	0.82818 0.19995 0.01642 -0.02800
C 	C 	0.85273 0.18031 0.01899 -0.04500
C 	C 	0.75924 0.19620 0.98778 0.04800
C 	C 	0.73886 0.21358 0.98271 -0.12200
C 	C 	0.93270 0.05528 0.99623 -0.01100
C 	C 	0.95293 0.03738 0.99552 -0.03200
H 	H 	0.90739 0.08256 0.93620 0.04100
H 	H 	0.86408 0.11733 0.93721 0.03800
H 	H 	0.86081 0.11044 0.05929 0.03900
H 	H 	0.90424 0.07572 0.05824 0.04100
H 	H 	0.76964 0.07458 0.96051 0.04000
H 	H 	0.72641 0.10932 0.95594 0.03400
H 	H 	0.84479 0.23511 0.03173 0.03700
H 	H 	0.88817 0.20042 0.03624 0.04100
C 	C 	0.43142 0.20240 0.98371 -0.01100
C 	C 	0.41062 0.18347 0.01551 -0.02900
C 	C 	0.36291 0.16406 0.01499 -0.04400
C 	C 	0.33567 0.16352 0.98264 0.01000
C 	C 	0.35657 0.18257 0.95082 -0.04500
C 	C 	0.40433 0.20196 0.95138 -0.03000
C 	C 	0.28502 0.14192 0.98171 0.00300
C 	C 	0.27100 0.15982 0.00992 -0.03700
C 	C 	0.22294 0.13717 0.01087 -0.04300
C 	C 	0.18867 0.09657 0.98361 0.01500
C 	C 	0.20256 0.07936 0.95479 -0.04300
C 	C 	0.25058 0.10194 0.95383 -0.03700
C 	C 	0.13950 0.07108 0.98652 -0.01100
C 	C 	0.09813 0.04920 0.98844 -0.03200
C 	C 	0.48076 0.22298 0.98465 0.04600
C 	C 	0.52213 0.24003 0.98607 -0.11200
H 	H 	0.43140 0.18377 0.04063 0.04000
H 	H 	0.34701 0.14916 0.03957 0.04100
H 	H 	0.33583 0.18234 0.92573 0.04000
H 	H 	0.42024 0.21666 0.92673 0.03800
H 	H 	0.29733 0.19086 0.03141 0.03900
H 	H 	0.21242 0.15074 0.03316 0.04100
H 	H 	0.17622 0.04802 0.93359 0.04100
H 	H 	0.26105 0.08784 0.93196 0.03800
