data_crystal

_cell_length_a 26.15945
_cell_length_b 26.59460
_cell_length_c 34.73581
_cell_angle_alpha 95.50032
_cell_angle_beta  95.49810
_cell_angle_gamma 125.84056

_symmetry_space_group_name_	'P 1'
_symmetry_space_group_name_H-M	'P 1'

loop_
_symmetry_equiv_pos_as_xyz
  x,y,z

loop_
_atom_site_label
_atom_site_type_symbol
_atom_site_fract_x
_atom_site_fract_y
_atom_site_fract_z
_atom_site_charge
C 	C 	0.99694 0.06245 0.99802 0.02800
C 	C 	0.96100 0.99674 0.99455 -0.06500
C 	C 	0.99053 0.96705 0.98964 0.04000
C 	C 	0.05610 0.00308 0.98828 -0.07400
C 	C 	0.09228 0.06878 0.99183 0.04000
C 	C 	0.06272 0.09853 0.99685 -0.06400
H 	H 	0.91017 0.96881 0.99543 0.05900
H 	H 	0.07893 0.98006 0.98449 0.06400
H 	H 	0.09062 0.14936 0.99956 0.05900
C 	C 	0.90246 0.96393 0.45579 0.03700
C 	C 	0.86750 0.89987 0.45853 -0.07100
C 	C 	0.89876 0.87152 0.46165 0.04000
C 	C 	0.96462 0.90697 0.46107 -0.07100
C 	C 	0.99981 0.97118 0.45927 0.03800
C 	C 	0.96870 0.99960 0.45645 -0.06600
H 	H 	0.81646 0.87248 0.45865 0.05900
H 	H 	0.98867 0.88489 0.46279 0.05800
H 	H 	0.99599 0.04939 0.45511 0.05700
Cu	Cu	0.67182 0.28012 0.01201 0.93100
Cu	Cu	0.71684 0.26928 0.92850 0.87500
Cu	Cu	0.71500 0.37695 0.95822 0.89800
Cu	Cu	0.68552 0.40496 0.03537 0.89800
C 	C 	0.69127 0.33127 0.09329 0.29200
O 	O 	0.58079 0.25217 0.01108 -0.34900
C 	C 	0.68791 0.32545 0.87306 0.28800
O 	O 	0.73058 0.37800 0.01352 -0.63800
O 	O 	0.66419 0.28373 0.95543 -0.64200
O 	O 	0.70459 0.22860 0.01122 -0.36200
O 	O 	0.77659 0.28629 0.97283 -0.43100
O 	O 	0.66762 0.36065 0.08120 -0.37800
O 	O 	0.76711 0.46796 0.96476 -0.37800
C 	C 	0.75825 0.50454 0.98690 0.29100
C 	C 	0.56036 0.28145 0.99452 0.28100
O 	O 	0.60209 0.33955 0.98933 -0.38900
O 	O 	0.73322 0.48902 0.01901 -0.37900
O 	O 	0.69350 0.29239 0.06809 -0.35400
C 	C 	0.75795 0.24838 0.99839 0.28600
O 	O 	0.71463 0.37572 0.90117 -0.37900
O 	O 	0.67785 0.27301 0.88066 -0.41200
H 	H 	0.77651 0.40266 0.02577 0.17400
H 	H 	0.61964 0.25994 0.94071 0.17800
Cu	Cu	0.70198 0.30146 0.44862 0.92900
Cu	Cu	0.71379 0.26117 0.53352 0.87400
Cu	Cu	0.60460 0.26334 0.50328 0.90000
Cu	Cu	0.57466 0.28926 0.42337 0.89800
C 	C 	0.65897 0.29635 0.36867 0.28900
O 	O 	0.73914 0.39297 0.44876 -0.36100
C 	C 	0.65870 0.29300 0.58833 0.28700
O 	O 	0.60240 0.24710 0.44803 -0.63700
O 	O 	0.69921 0.31198 0.50529 -0.64000
O 	O 	0.74917 0.26379 0.44893 -0.36700
O 	O 	0.69172 0.19838 0.49025 -0.43000
O 	O 	0.60203 0.28119 0.37286 -0.37700
O 	O 	0.51208 0.21163 0.49716 -0.36900
C 	C 	0.47471 0.21521 0.47103 0.29200
C 	C 	0.70702 0.41530 0.45626 0.28500
O 	O 	0.64863 0.37757 0.46310 -0.38600
O 	O 	0.49912 0.25946 0.44931 -0.38800
O 	O 	0.68883 0.28156 0.39243 -0.35400
C 	C 	0.72793 0.21243 0.46349 0.29100
O 	O 	0.60692 0.26485 0.56049 -0.37800
O 	O 	0.71190 0.30277 0.58061 -0.41300
H 	H 	0.57725 0.20160 0.43657 0.17500
H 	H 	0.72361 0.35644 0.51892 0.17500
C 	C 	0.63992 0.26678 0.69487 -0.00100
C 	C 	0.61467 0.24813 0.72893 -0.05300
C 	C 	0.65519 0.28508 0.76525 0.01700
C 	C 	0.71646 0.34091 0.76674 -0.00000
C 	C 	0.73735 0.36452 0.73264 -0.05400
C 	C 	0.69904 0.32511 0.69633 0.01700
S 	S 	0.59778 0.24238 0.64952 0.03000
C 	C 	0.65303 0.30240 0.62955 -0.07300
C 	C 	0.70693 0.34503 0.65958 -0.02000
S 	S 	0.74282 0.38308 0.81197 0.02500
C 	C 	0.67984 0.33174 0.83188 -0.07200
C 	C 	0.63462 0.27937 0.80188 -0.02000
H 	H 	0.56530 0.20777 0.72723 0.05000
H 	H 	0.78047 0.41192 0.73428 0.04900
H 	H 	0.75098 0.38712 0.65467 0.04300
H 	H 	0.59030 0.23761 0.80680 0.04400
C 	C 	0.66090 0.27685 0.19370 -0.00100
C 	C 	0.66079 0.25140 0.22724 -0.04900
C 	C 	0.65751 0.27910 0.26251 0.01900
C 	C 	0.65876 0.33264 0.26407 0.00400
C 	C 	0.67005 0.36403 0.23226 -0.05300
C 	C 	0.66886 0.33402 0.19638 0.02200
S 	S 	0.68205 0.26475 0.15219 0.04800
C 	C 	0.69973 0.32952 0.13551 -0.07200
C 	C 	0.69036 0.36364 0.16370 -0.01800
S 	S 	0.67555 0.36532 0.31094 0.03000
C 	C 	0.67944 0.31256 0.33116 -0.06300
C 	C 	0.66849 0.26723 0.30021 -0.01600
H 	H 	0.66500 0.21315 0.22623 0.05300
H 	H 	0.68117 0.41056 0.23556 0.05200
H 	H 	0.69659 0.40682 0.16010 0.04500
H 	H 	0.66500 0.22564 0.30469 0.05200
C 	C 	0.78822 0.69363 0.43436 -0.02000
C 	C 	0.80883 0.67708 0.46656 0.00600
C 	C 	0.85352 0.72403 0.49904 -0.03700
C 	C 	0.87940 0.78736 0.49906 -0.01700
C 	C 	0.86269 0.80447 0.46550 -0.00100
C 	C 	0.81575 0.75723 0.43381 -0.03500
C 	C 	0.78576 0.61101 0.46583 0.02700
C 	C 	0.80580 0.58478 0.43996 -0.06100
C 	C 	0.78178 0.52139 0.43704 0.02500
C 	C 	0.73884 0.48407 0.46146 -0.08500
C 	C 	0.72144 0.51152 0.48873 0.01000
C 	C 	0.74369 0.57421 0.49054 -0.04300
C 	C 	0.79974 0.49471 0.40797 0.07600
C 	C 	0.72177 0.59992 0.51710 0.09100
C 	C 	0.73891 0.64564 0.40182 0.08400
C 	C 	0.92275 0.83449 0.53366 0.08400
N 	N 	0.81428 0.47349 0.38469 -0.10700
N 	N 	0.70424 0.62055 0.53837 -0.11300
N 	N 	0.95750 0.87231 0.56135 -0.11000
N 	N 	0.69941 0.60716 0.37576 -0.11200
H 	H 	0.80186 0.77015 0.40831 0.04900
H 	H 	0.86838 0.71122 0.52419 0.05000
H 	H 	0.83888 0.61341 0.42133 0.05600
H 	H 	0.68929 0.48352 0.50796 0.04000
C 	C 	0.83074 0.04032 0.41404 -0.01400
C 	C 	0.81892 0.06208 0.44822 0.00200
C 	C 	0.83114 0.04835 0.48444 -0.03500
C 	C 	0.85677 0.01476 0.48708 -0.02300
C 	C 	0.87005 0.99429 0.45307 0.01000
C 	C 	0.85624 0.00658 0.41665 -0.04700
C 	C 	0.79547 0.10092 0.44665 0.02900
C 	C 	0.72929 0.07134 0.44070 -0.06400
C 	C 	0.70633 0.10747 0.44350 0.02900
C 	C 	0.75007 0.17402 0.45292 -0.08900
C 	C 	0.81611 0.20356 0.45636 0.01100
C 	C 	0.83901 0.16739 0.45339 -0.04500
C 	C 	0.63790 0.07599 0.43607 0.07300
C 	C 	0.90729 0.19878 0.45799 0.09200
C 	C 	0.81763 0.05316 0.37635 0.08500
C 	C 	0.87044 0.00251 0.52488 0.08000
N 	N 	0.58308 0.05078 0.43011 -0.10900
N 	N 	0.96198 0.22386 0.46167 -0.11400
N 	N 	0.88142 0.99265 0.55514 -0.10600
N 	N 	0.80712 0.06349 0.34616 -0.10800
H 	H 	0.86632 0.99071 0.39047 0.05600
H 	H 	0.82163 0.06475 0.51068 0.04600
H 	H 	0.69574 0.02018 0.43451 0.05600
H 	H 	0.84981 0.25471 0.46290 0.03700
C 	C 	0.17567 0.06029 0.50184 -0.01800
C 	C 	0.20322 0.07608 0.46793 0.00600
C 	C 	0.16400 0.05858 0.43129 -0.03800
C 	C 	0.09756 0.02528 0.42819 -0.01600
C 	C 	0.06996 0.00927 0.46210 0.00100
C 	C 	0.10927 0.02707 0.49876 -0.03500
C 	C 	0.27337 0.11207 0.47059 0.02800
C 	C 	0.29993 0.07949 0.46536 -0.06100
C 	C 	0.36597 0.11269 0.46631 0.02600
C 	C 	0.40596 0.17929 0.47261 -0.08000
C 	C 	0.37943 0.21182 0.47862 0.01500
C 	C 	0.31347 0.17861 0.47760 -0.04200
C 	C 	0.39196 0.07806 0.45963 0.07000
C 	C 	0.28718 0.21308 0.48365 0.09500
C 	C 	0.21527 0.07804 0.53987 0.08800
C 	C 	0.05794 0.00712 0.39010 0.08000
N 	N 	0.41279 0.05032 0.45427 -0.11000
N 	N 	0.26606 0.24064 0.48849 -0.11100
N 	N 	0.02614 0.99255 0.35960 -0.10600
N 	N 	0.24704 0.09230 0.57033 -0.10900
H 	H 	0.08798 0.01457 0.52482 0.05500
H 	H 	0.18530 0.07097 0.40523 0.05100
H 	H 	0.26902 0.02826 0.46014 0.05600
H 	H 	0.41020 0.26305 0.48385 0.04300
C 	C 	0.88586 0.67222 0.97701 -0.04100
C 	C 	0.85192 0.69824 0.97790 0.02800
C 	C 	0.78590 0.65913 0.97806 -0.06000
C 	C 	0.75409 0.59499 0.97922 0.02700
C 	C 	0.78872 0.56959 0.98041 -0.07800
C 	C 	0.85412 0.60810 0.97822 0.01300
C 	C 	0.88592 0.76708 0.98108 0.00400
C 	C 	0.89198 0.79241 0.94675 -0.03800
C 	C 	0.92533 0.85764 0.94920 -0.01500
C 	C 	0.95286 0.89801 0.98637 -0.00500
C 	C 	0.94601 0.87257 0.02069 -0.03200
C 	C 	0.91273 0.80740 0.01825 -0.01700
C 	C 	0.93125 0.88286 0.91349 0.08500
C 	C 	0.90665 0.78223 0.05399 0.08600
C 	C 	0.95353 0.71134 0.97567 0.08700
C 	C 	0.68579 0.55537 0.97866 0.07100
N 	N 	0.93605 0.90316 0.88492 -0.10600
N 	N 	0.90175 0.76200 0.08259 -0.11000
N 	N 	0.63109 0.52363 0.97822 -0.11100
N 	N 	0.00774 0.74273 0.97461 -0.10800
H 	H 	0.88072 0.58856 0.97869 0.04200
H 	H 	0.75958 0.67896 0.97801 0.05700
H 	H 	0.87110 0.76135 0.91816 0.05100
H 	H 	0.96709 0.90364 0.04928 0.04800
C 	C 	0.79328 0.13060 0.00432 -0.04100
C 	C 	0.86098 0.17078 0.01293 0.02700
C 	C 	0.89403 0.23634 0.02212 -0.06200
C 	C 	0.86036 0.26225 0.02043 0.02700
C 	C 	0.79285 0.22223 0.00884 -0.08500
C 	C 	0.75957 0.15649 0.00243 0.01100
C 	C 	0.89773 0.14484 0.00968 0.00800
C 	C 	0.91085 0.13369 0.97291 -0.04000
C 	C 	0.94422 0.10784 0.96890 -0.02100
C 	C 	0.96517 0.09329 0.00206 0.00600
C 	C 	0.95286 0.10529 0.03895 -0.03800
C 	C 	0.91925 0.13093 0.04292 -0.01800
C 	C 	0.95594 0.09546 0.93058 0.08500
C 	C 	0.90640 0.14218 0.08107 0.08600
C 	C 	0.75816 0.06282 0.99669 0.08800
C 	C 	0.89529 0.32984 0.03102 0.07400
N 	N 	0.96534 0.08549 0.89989 -0.10600
N 	N 	0.89606 0.15121 0.11162 -0.10900
N 	N 	0.92327 0.38399 0.03951 -0.11200
N 	N 	0.73009 0.00852 0.99059 -0.11400
H 	H 	0.70759 0.12554 0.99428 0.03500
H 	H 	0.94605 0.26720 0.02983 0.05600
H 	H 	0.89449 0.14461 0.94736 0.04700
H 	H 	0.96887 0.09400 0.06445 0.04900
C 	C 	0.26971 0.14967 0.02297 -0.01600
C 	C 	0.29213 0.16799 0.98780 0.00200
C 	C 	0.24924 0.15627 0.95450 -0.03700
C 	C 	0.18409 0.12553 0.95580 -0.01600
C 	C 	0.16155 0.10647 0.99083 -0.00400
C 	C 	0.20470 0.11931 0.02433 -0.03300
C 	C 	0.36043 0.19876 0.98550 0.03200
C 	C 	0.37897 0.16189 0.97078 -0.06300
C 	C 	0.44403 0.18896 0.97178 0.03000
C 	C 	0.49131 0.25354 0.98827 -0.08600
C 	C 	0.47237 0.29100 0.00115 0.02300
C 	C 	0.40730 0.26401 0.99973 -0.05000
C 	C 	0.46169 0.15062 0.95486 0.06900
C 	C 	0.38903 0.30337 0.01349 0.09900
C 	C 	0.31302 0.16126 0.05763 0.08700
C 	C 	0.14049 0.11274 0.92091 0.08600
N 	N 	0.47583 0.11991 0.94129 -0.11700
N 	N 	0.37433 0.33485 0.02451 -0.11300
N 	N 	0.10552 0.10245 0.89298 -0.10300
N 	N 	0.34778 0.17058 0.08537 -0.10900
H 	H 	0.18736 0.10461 0.05126 0.04900
H 	H 	0.26653 0.17063 0.92751 0.05100
H 	H 	0.34275 0.11194 0.95901 0.05700
H 	H 	0.50844 0.34083 0.01331 0.03500
