data_crystal

_cell_length_a 18.01646
_cell_length_b 17.43101
_cell_length_c 45.60606
_cell_angle_alpha 90.70845
_cell_angle_beta  91.00160
_cell_angle_gamma 110.79337

_symmetry_space_group_name_	'P 1'
_symmetry_space_group_name_H-M	'P 1'

loop_
_symmetry_equiv_pos_as_xyz
  x,y,z

loop_
_atom_site_label
_atom_site_type_symbol
_atom_site_fract_x
_atom_site_fract_y
_atom_site_fract_z
_atom_site_charge
O 	O 	0.06411 0.91488 0.76644 -0.68800
Ni	Ni	0.09746 0.02565 0.78672 1.09300
O 	O 	0.09058 0.79512 0.72711 -0.41100
Ni	Ni	0.15853 0.89739 0.75264 1.07000
O 	O 	0.16359 0.98679 0.72353 -0.40400
O 	O 	0.18373 0.01502 0.81455 -0.39000
O 	O 	0.01548 0.03599 0.75726 -0.70300
O 	O 	0.09924 0.13133 0.80805 -0.36800
H 	H 	0.03349 0.87019 0.77930 0.16600
H 	H 	0.03677 0.08657 0.74570 0.15800
C 	C 	0.19727 0.06484 0.73166 0.25600
C 	C 	0.02688 0.78893 0.71115 0.34500
C 	C 	0.24641 0.00240 0.80424 0.26100
C 	C 	0.03101 0.13598 0.81623 0.30100
O 	O 	0.18388 0.09131 0.75787 -0.36700
O 	O 	0.24785 0.98208 0.77639 -0.38900
Ni	Ni	0.36552 0.74769 0.41206 1.09900
O 	O 	0.36103 0.66452 0.37888 -0.69800
Ni	Ni	0.25385 0.65050 0.36082 1.09400
O 	O 	0.45641 0.73140 0.43548 -0.34700
O 	O 	0.44909 0.60251 0.42280 -0.39100
O 	O 	0.44846 0.84069 0.39002 -0.36900
Ni	Ni	0.35372 0.55570 0.39316 1.06500
O 	O 	0.35011 0.91843 0.40709 -0.39400
O 	O 	0.27545 0.56117 0.42414 -0.41600
O 	O 	0.24932 0.56138 0.33083 -0.39900
O 	O 	0.26378 0.73951 0.39169 -0.70800
O 	O 	0.36279 0.83229 0.44276 -0.35100
O 	O 	0.15050 0.65771 0.34343 -0.37200
O 	O 	0.20567 0.79619 0.33816 -0.41800
Ni	Ni	0.27964 0.84638 0.37431 1.06600
H 	H 	0.40389 0.68532 0.36457 0.15400
H 	H 	0.21914 0.72405 0.40544 0.15900
C 	C 	0.20334 0.55755 0.41674 0.24600
O 	O 	0.37366 0.84753 0.34993 -0.41800
C 	C 	0.45246 0.65794 0.44309 0.25500
C 	C 	0.24987 0.49001 0.33941 0.29400
C 	C 	0.44259 0.85466 0.36196 0.29700
C 	C 	0.14257 0.72914 0.33995 0.29400
C 	C 	0.34526 0.89639 0.43483 0.24400
O 	O 	0.18392 0.56398 0.38905 -0.35500
O 	O 	0.26306 0.47861 0.36729 -0.41000
Ni	Ni	0.39719 0.64578 0.12203 1.09800
O 	O 	0.29185 0.61099 0.09824 -0.69900
Ni	Ni	0.22624 0.65777 0.12311 1.09700
O 	O 	0.44319 0.56898 0.10033 -0.35400
O 	O 	0.32864 0.46268 0.10421 -0.39600
O 	O 	0.45257 0.73183 0.09120 -0.35600
Ni	Ni	0.23352 0.49392 0.09086 1.07500
O 	O 	0.50401 0.82201 0.14034 -0.40500
O 	O 	0.17668 0.44991 0.12908 -0.39600
O 	O 	0.11559 0.60830 0.10298 -0.36500
O 	O 	0.33477 0.70089 0.14451 -0.70200
O 	O 	0.49844 0.68962 0.14699 -0.38100
O 	O 	0.18298 0.72882 0.14922 -0.36700
O 	O 	0.28539 0.84597 0.13822 -0.40900
Ni	Ni	0.38895 0.81906 0.14022 1.06500
H 	H 	0.29956 0.63835 0.07908 0.15200
H 	H 	0.33167 0.68563 0.16541 0.15200
C 	C 	0.15064 0.49134 0.14799 0.31200
O 	O 	0.37964 0.81416 0.09571 -0.40300
C 	C 	0.39555 0.49675 0.09089 0.25500
C 	C 	0.09071 0.54129 0.08596 0.24500
C 	C 	0.42137 0.78241 0.07968 0.25500
C 	C 	0.22178 0.80815 0.15340 0.27800
C 	C 	0.53012 0.76869 0.15357 0.28300
O 	O 	0.19179 0.56886 0.15411 -0.39700
O 	O 	0.14121 0.51601 0.07179 -0.39300
O 	O 	0.07540 0.17935 0.24743 -0.37100
O 	O 	0.13391 0.05740 0.23950 -0.41000
O 	O 	0.04895 0.05894 0.20171 -0.36400
Ni	Ni	0.06826 0.01088 0.27554 1.06200
O 	O 	0.08053 0.12377 0.29217 -0.41900
C 	C 	0.09570 0.18794 0.27544 0.29700
C 	C 	0.10589 0.03536 0.21246 0.26600
C 	C 	0.05801 0.35274 0.21030 -0.02300
C 	C 	0.98320 0.30913 0.19763 -0.11400
C 	C 	0.01164 0.40717 0.15801 0.01600
C 	C 	0.09009 0.44399 0.16861 -0.10700
C 	C 	0.11234 0.41934 0.19589 0.11700
N 	N 	0.18609 0.45774 0.20799 -0.20000
H 	H 	0.07568 0.33214 0.23069 0.05000
H 	H 	0.99384 0.42791 0.13764 0.01700
H 	H 	0.20237 0.43763 0.22776 0.08900
H 	H 	0.22736 0.50869 0.19836 0.09400
C 	C 	0.17315 0.92442 0.15211 -0.05200
C 	C 	0.18116 0.85844 0.16757 -0.08400
C 	C 	0.15927 0.84796 0.19735 0.09600
C 	C 	0.13165 0.90488 0.21111 -0.04200
C 	C 	0.12983 0.97438 0.19628 -0.09100
C 	C 	0.15165 0.98478 0.16651 0.13300
N 	N 	0.15589 0.05402 0.15207 -0.21300
H 	H 	0.18856 0.93156 0.12916 0.06200
H 	H 	0.11336 0.89613 0.23374 0.01300
N 	N 	0.16622 0.78484 0.21306 -0.19900
H 	H 	0.16798 0.05904 0.12970 0.08600
H 	H 	0.15220 0.10527 0.16311 0.10700
H 	H 	0.19043 0.74383 0.20414 0.08900
H 	H 	0.14858 0.77715 0.23488 0.08100
N 	N 	0.47275 0.79356 0.30583 -0.20000
H 	H 	0.48033 0.77321 0.28482 0.07600
H 	H 	0.42466 0.75672 0.31773 0.06900
C 	C 	0.25635 0.37137 0.31058 -0.04800
C 	C 	0.21135 0.41735 0.32036 -0.09600
C 	C 	0.12894 0.39064 0.31322 0.11400
C 	C 	0.09372 0.31855 0.29633 -0.04600
C 	C 	0.13780 0.27031 0.28803 -0.09800
C 	C 	0.22042 0.29807 0.29434 0.10500
N 	N 	0.26558 0.25515 0.28470 -0.20200
H 	H 	0.31944 0.39228 0.31585 0.02900
H 	H 	0.03075 0.29782 0.29089 0.03400
N 	N 	0.08283 0.43197 0.32338 -0.20000
H 	H 	0.32621 0.27507 0.29006 0.07600
H 	H 	0.24160 0.20301 0.27120 0.08800
H 	H 	0.10454 0.48023 0.33862 0.11600
H 	H 	0.02297 0.41353 0.31696 0.09000
C 	C 	0.96894 0.79484 0.34877 -0.09000
C 	C 	0.95927 0.81414 0.31956 -0.06900
C 	C 	0.98684 0.77538 0.29706 0.04000
C 	C 	0.04110 0.73682 0.30412 0.00500
C 	C 	0.06387 0.73293 0.33343 -0.12100
C 	C 	0.02114 0.75382 0.35593 0.13600
N 	N 	0.03213 0.73729 0.38439 -0.21100
H 	H 	0.06970 0.71531 0.28677 0.03600
N 	N 	0.96449 0.77871 0.26865 -0.20100
H 	H 	0.06742 0.70313 0.39002 0.08400
H 	H 	0.91998 0.80180 0.26324 0.07200
H 	H 	0.98881 0.75456 0.25183 0.06700
C 	C 	0.39290 0.14294 0.49191 -0.06800
C 	C 	0.34719 0.06459 0.48077 -0.03400
O 	O 	0.30824 0.92327 0.48542 -0.20600
C 	C 	0.33372 0.95110 0.45749 0.06300
C 	C 	0.35706 0.03485 0.45442 -0.07700
H 	H 	0.42726 0.19093 0.47752 0.05600
H 	H 	0.39753 0.06966 0.43803 0.05000
C 	C 	0.02817 0.49320 0.45803 0.15900
C 	C 	0.06738 0.47618 0.50813 -0.04100
C 	C 	0.07945 0.47685 0.47778 -0.01700
O 	O 	0.06275 0.52480 0.43173 -0.19700
C 	C 	0.14000 0.52843 0.43808 0.03700
C 	C 	0.15056 0.49956 0.46526 -0.04600
H 	H 	0.10841 0.46430 0.52347 0.06000
H 	H 	0.20695 0.51476 0.47696 0.04900
C 	C 	0.51333 0.68624 0.51676 0.11600
C 	C 	0.41542 0.58224 0.54462 -0.08900
C 	C 	0.43888 0.62736 0.51903 0.01400
O 	O 	0.53834 0.70176 0.48805 -0.18400
C 	C 	0.47239 0.64501 0.47339 0.04300
C 	C 	0.41447 0.59865 0.49183 -0.06800
H 	H 	0.36270 0.52727 0.54462 0.06900
H 	H 	0.35401 0.56196 0.48534 0.04800
C 	C 	0.33738 0.09442 0.71949 -0.04600
C 	C 	0.26912 0.11486 0.71653 -0.08300
C 	C 	0.27272 0.18641 0.70137 0.10500
C 	C 	0.34394 0.23365 0.68812 -0.04000
C 	C 	0.41118 0.21080 0.69016 -0.09000
C 	C 	0.40937 0.14444 0.70789 0.09500
N 	N 	0.47685 0.12901 0.71402 -0.20000
H 	H 	0.33497 0.04037 0.73149 0.03400
H 	H 	0.34570 0.28558 0.67493 0.06100
N 	N 	0.20783 0.20872 0.69870 -0.19800
H 	H 	0.47480 0.07839 0.72647 0.07000
H 	H 	0.53232 0.16932 0.70773 0.05200
H 	H 	0.15338 0.17345 0.70742 0.08300
H 	H 	0.21123 0.26185 0.68755 0.09200
H 	H 	0.12581 0.77099 0.67429 0.10300
C 	C 	0.91073 0.52335 0.04966 0.02300
O 	O 	0.97797 0.43517 0.06010 -0.22400
C 	C 	0.00771 0.50986 0.07561 0.09800
C 	C 	0.96696 0.56205 0.06995 -0.10000
H 	H 	0.99234 0.62822 0.07279 0.06200
C 	C 	0.49373 0.03317 0.99595 0.09700
C 	C 	0.42956 0.96174 0.00212 -0.06400
C 	C 	0.44579 0.89599 0.01462 0.01000
C 	C 	0.52231 0.90195 0.02197 0.11000
O 	O 	0.48993 0.08565 0.97373 -0.18900
O 	O 	0.52677 0.85028 0.04432 -0.18600
C 	C 	0.44623 0.81583 0.05069 0.04000
C 	C 	0.39748 0.84194 0.03286 -0.06100
H 	H 	0.36926 0.95662 0.99658 0.06700
H 	H 	0.33931 0.84131 0.03886 0.05400
C 	C 	0.34879 0.40219 0.02184 0.10700
C 	C 	0.34260 0.34330 0.99985 -0.08600
C 	C 	0.34889 0.36786 0.97046 0.00900
C 	C 	0.36463 0.48275 0.01460 -0.00200
O 	O 	0.36833 0.39189 0.05079 -0.19800
C 	C 	0.39893 0.47421 0.06006 0.02000
C 	C 	0.39953 0.52849 0.03823 -0.06500
H 	H 	0.34039 0.28238 0.00556 0.06500
H 	H 	0.40645 0.59235 0.04163 0.04500
H 	H 	0.39528 0.27981 0.95302 0.06100
C 	C 	0.41661 0.05236 0.86054 -0.03100
C 	C 	0.47698 0.11239 0.84566 -0.10500
C 	C 	0.46210 0.13294 0.81685 0.11600
C 	C 	0.38503 0.10039 0.80474 -0.05500
C 	C 	0.32393 0.04139 0.81966 -0.07400
C 	C 	0.34023 0.01554 0.84761 0.07700
N 	N 	0.28354 0.95566 0.86207 -0.18400
H 	H 	0.42826 0.03610 0.88258 0.04600
H 	H 	0.37287 0.11981 0.78326 0.05900
N 	N 	0.52184 0.18332 0.80060 -0.20200
H 	H 	0.29597 0.93785 0.88283 0.09600
H 	H 	0.22720 0.92531 0.85274 0.09400
H 	H 	0.58093 0.20258 0.80800 0.08500
H 	H 	0.50996 0.20066 0.77969 0.08200
Ni	Ni	0.59903 0.30582 0.90371 1.09800
O 	O 	0.64391 0.40455 0.87740 -0.70500
Ni	Ni	0.75275 0.40327 0.87076 1.09900
O 	O 	0.49403 0.32598 0.90663 -0.36300
O 	O 	0.55702 0.45859 0.92322 -0.38400
O 	O 	0.55916 0.24290 0.86543 -0.40600
Ni	Ni	0.65304 0.50881 0.89564 1.06900
O 	O 	0.66472 0.15919 0.92979 -0.40900
O 	O 	0.71965 0.49823 0.93093 -0.38600
O 	O 	0.78662 0.49669 0.84206 -0.38500
O 	O 	0.71121 0.31266 0.90072 -0.70800
O 	O 	0.55491 0.19967 0.92716 -0.36800
O 	O 	0.85120 0.37524 0.86146 -0.37700
O 	O 	0.77403 0.24116 0.85223 -0.42300
Ni	Ni	0.71074 0.20298 0.89045 1.06800
H 	H 	0.61417 0.39721 0.85848 0.15800
H 	H 	0.73790 0.32915 0.92008 0.15200
C 	C 	0.78988 0.49237 0.92892 0.25300
O 	O 	0.60532 0.13747 0.86866 -0.40200
C 	C 	0.49109 0.39602 0.91680 0.24300
C 	C 	0.77099 0.56392 0.84715 0.28100
C 	C 	0.54792 0.16514 0.86231 0.32000
C 	C 	0.84428 0.30059 0.85315 0.27800
C 	C 	0.60009 0.16599 0.94144 0.25100
O 	O 	0.81846 0.48320 0.90329 -0.36400
O 	O 	0.75140 0.58042 0.87380 -0.40300
Ni	Ni	0.58206 0.36598 0.63159 1.10000
O 	O 	0.66317 0.39772 0.59891 -0.70300
Ni	Ni	0.74508 0.35405 0.61405 1.09800
O 	O 	0.53147 0.45134 0.62147 -0.34900
O 	O 	0.65364 0.55110 0.62014 -0.41100
O 	O 	0.50085 0.28438 0.60309 -0.35200
Ni	Ni	0.71604 0.51229 0.58917 1.07200
O 	O 	0.48681 0.19055 0.65004 -0.40700
O 	O 	0.81870 0.54789 0.61427 -0.39600
O 	O 	0.83643 0.40938 0.58576 -0.35400
O 	O 	0.65511 0.30740 0.64318 -0.70200
O 	O 	0.50282 0.32273 0.66399 -0.38100
O 	O 	0.80548 0.28321 0.63089 -0.36400
O 	O 	0.69612 0.16609 0.62573 -0.41300
Ni	Ni	0.59588 0.19036 0.63800 1.06400
H 	H 	0.63994 0.36747 0.58051 0.16200
H 	H 	0.67353 0.32087 0.66383 0.15100
C 	C 	0.82384 0.52133 0.64072 0.29700
O 	O 	0.57058 0.19980 0.59490 -0.40700
C 	C 	0.57603 0.52819 0.61710 0.24500
C 	C 	0.82854 0.44563 0.56100 0.25500
C 	C 	0.51559 0.22876 0.58683 0.25500
C 	C 	0.76670 0.20600 0.63765 0.27500
C 	C 	0.47490 0.24313 0.66900 0.28400
O 	O 	0.79674 0.44229 0.64584 -0.39100
O 	O 	0.77025 0.47418 0.55663 -0.40700
Ni	Ni	0.99967 0.93800 0.73192 1.09700
O 	O 	0.01393 0.85463 0.70270 -0.36800
O 	O 	0.89739 0.85175 0.74721 -0.38700
O 	O 	0.84785 0.98168 0.73587 -0.40200
O 	O 	0.93266 0.96820 0.70087 -0.37800
O 	O 	0.96572 0.07106 0.81406 -0.44200
Ni	Ni	0.91315 0.02637 0.77353 1.05500
O 	O 	0.88876 0.91348 0.79081 -0.40400
C 	C 	0.87808 0.84702 0.77500 0.29500
C 	C 	0.87834 0.99787 0.70944 0.30700
Ni	Ni	0.97678 0.08652 0.23058 1.09100
O 	O 	0.90782 0.10763 0.26320 -0.70700
Ni	Ni	0.88092 0.99959 0.28357 1.10300
O 	O 	0.95800 0.16504 0.20080 -0.38600
O 	O 	0.87003 0.21527 0.22193 -0.41400
Ni	Ni	0.80887 0.11332 0.24695 1.06400
O 	O 	0.81144 0.02526 0.21750 -0.44800
O 	O 	0.79378 0.00849 0.30980 -0.40000
O 	O 	0.96576 0.99197 0.25611 -0.70400
O 	O 	0.88199 0.89633 0.30466 -0.36000
O 	O 	0.01460 0.96004 0.31421 -0.37900
H 	H 	0.93552 0.15468 0.27653 0.14800
H 	H 	0.94806 0.94018 0.24440 0.15500
C 	C 	0.79107 0.94764 0.22528 0.29400
C 	C 	0.93793 0.22729 0.20889 0.30500
C 	C 	0.72845 0.01348 0.29824 0.26100
C 	C 	0.95066 0.89320 0.31377 0.24800
O 	O 	0.79651 0.92877 0.25323 -0.37100
O 	O 	0.72405 0.02626 0.26992 -0.42000
C 	C 	0.95827 0.33865 0.17187 0.08000
N 	N 	0.88435 0.30040 0.15988 -0.19600
H 	H 	0.84309 0.24952 0.16959 0.09200
H 	H 	0.86712 0.32201 0.14061 0.08300
C 	C 	0.61565 0.77168 0.19714 -0.05100
C 	C 	0.60810 0.79949 0.16894 -0.09400
C 	C 	0.67428 0.86011 0.15647 0.11400
C 	C 	0.74067 0.90275 0.17441 -0.04800
C 	C 	0.74312 0.88265 0.20407 -0.09600
C 	C 	0.68566 0.80899 0.21393 0.10900
N 	N 	0.70033 0.77050 0.23785 -0.19600
H 	H 	0.56777 0.72026 0.20583 0.04000
H 	H 	0.78881 0.95374 0.16564 0.05500
N 	N 	0.67531 0.87586 0.12731 -0.20100
H 	H 	0.65503 0.72097 0.24666 0.08300
H 	H 	0.75835 0.78296 0.24566 0.09800
H 	H 	0.63201 0.83778 0.11281 0.11700
H 	H 	0.72256 0.92361 0.11859 0.09300
C 	C 	0.59486 0.90653 0.30187 -0.06600
C 	C 	0.65383 0.97659 0.31404 -0.03200
C 	C 	0.64303 0.00688 0.34195 0.03900
C 	C 	0.57438 0.96479 0.35755 0.00300
C 	C 	0.51566 0.89430 0.34548 -0.11000
C 	C 	0.52639 0.86421 0.31747 0.11600
H 	H 	0.60365 0.88303 0.28057 0.06200
H 	H 	0.56576 0.98815 0.37888 0.05200
N 	N 	0.69708 0.07730 0.35356 -0.18900
H 	H 	0.74550 0.11347 0.34162 0.07200
H 	H 	0.68961 0.09801 0.37452 0.07600
H 	H 	0.94253 0.81901 0.36611 0.05300
H 	H 	0.00284 0.75583 0.40110 0.09200
C 	C 	0.39860 0.15531 0.52244 0.09700
C 	C 	0.31871 0.99824 0.49901 0.19000
C 	C 	0.32910 0.00964 0.52946 -0.16700
C 	C 	0.36422 0.08999 0.54068 0.04400
O 	O 	0.45947 0.22025 0.53584 -0.19600
C 	C 	0.45910 0.18647 0.56343 0.05100
C 	C 	0.40290 0.10963 0.56663 -0.07200
H 	H 	0.31560 0.95740 0.54371 0.10200
H 	H 	0.40561 0.06612 0.58301 0.04900
C 	C 	0.95992 0.50519 0.46791 -0.13800
C 	C 	0.94865 0.50569 0.49821 0.03600
C 	C 	0.99908 0.48841 0.51794 0.07000
O 	O 	0.96438 0.45857 0.54448 -0.18400
C 	C 	0.88791 0.45808 0.53826 0.04500
C 	C 	0.87834 0.48647 0.51091 -0.07400
H 	H 	0.91902 0.51750 0.45262 0.06800
H 	H 	0.82197 0.47523 0.49958 0.05400
C 	C 	0.56681 0.70455 0.54076 -0.09000
C 	C 	0.53985 0.66655 0.56752 0.00600
C 	C 	0.46634 0.60489 0.56938 0.11500
O 	O 	0.46226 0.54996 0.59161 -0.18400
C 	C 	0.54090 0.58157 0.60199 0.03100
C 	C 	0.58718 0.65184 0.58808 -0.06200
H 	H 	0.62858 0.74245 0.53814 0.06300
H 	H 	0.65131 0.67232 0.58684 0.03100
C 	C 	0.80900 0.08602 0.64289 -0.05000
C 	C 	0.80700 0.16003 0.65473 -0.09200
C 	C 	0.83184 0.18205 0.68432 0.08600
C 	C 	0.85693 0.12890 0.70142 -0.03800
C 	C 	0.85394 0.05260 0.69012 -0.13200
C 	C 	0.82878 0.03036 0.66062 0.09800
N 	N 	0.81962 0.95455 0.64959 -0.19000
H 	H 	0.79022 0.06930 0.62024 0.04700
H 	H 	0.87739 0.14637 0.72388 0.00300
N 	N 	0.82991 0.25278 0.69671 -0.20000
H 	H 	0.80480 0.94025 0.62742 0.09200
H 	H 	0.82237 0.90772 0.66310 0.10600
H 	H 	0.80768 0.29179 0.68533 0.08400
H 	H 	0.84955 0.26877 0.71840 0.07400
C 	C 	0.90385 0.66700 0.70558 -0.01500
C 	C 	0.98141 0.70995 0.69654 -0.16600
C 	C 	0.01017 0.68283 0.67122 0.18700
C 	C 	0.95898 0.61627 0.65451 -0.09300
C 	C 	0.87942 0.57783 0.66218 -0.06900
C 	C 	0.85219 0.60135 0.68854 0.08500
N 	N 	0.77638 0.56256 0.69731 -0.19500
H 	H 	0.88255 0.68682 0.72533 0.04000
H 	H 	0.98026 0.59656 0.63473 0.06500
N 	N 	0.08603 0.72135 0.66245 -0.21100
H 	H 	0.75670 0.58101 0.71665 0.08300
H 	H 	0.73656 0.51334 0.68529 0.07600
H 	H 	0.10626 0.70133 0.64354 0.09900
C 	C 	0.85164 0.52177 0.00181 0.12100
C 	C 	0.88208 0.56383 0.02825 -0.09600
C 	C 	0.91877 0.44881 0.04351 0.11100
C 	C 	0.89410 0.41016 0.01603 -0.08800
C 	C 	0.85633 0.44606 0.99629 0.00300
O 	O 	0.84061 0.56140 0.97680 -0.18900
C 	C 	0.83866 0.50172 0.95563 0.03900
C 	C 	0.85250 0.43498 0.96712 -0.06000
H 	H 	0.88806 0.62751 0.03127 0.06800
H 	H 	0.90942 0.35777 0.00949 0.05700
H 	H 	0.84162 0.37682 0.95586 0.02800
C 	C 	0.58632 0.97353 0.01583 -0.05900
C 	C 	0.56994 0.03978 0.00393 -0.01700
C 	C 	0.57115 0.12293 0.96876 0.03700
C 	C 	0.61911 0.09636 0.98679 -0.05200
H 	H 	0.64664 0.97876 0.02140 0.06200
H 	H 	0.67879 0.09993 0.98170 0.04400
C 	C 	0.36870 0.44959 0.96339 0.11900
C 	C 	0.37841 0.50886 0.98564 -0.08500
O 	O 	0.40919 0.46995 0.93737 -0.19800
C 	C 	0.41817 0.39543 0.93066 0.04900
C 	C 	0.37912 0.33338 0.94952 -0.05600
H 	H 	0.40386 0.57362 0.98085 0.06700
C 	C 	0.93560 0.28751 0.81497 -0.03200
C 	C 	0.91535 0.28365 0.84457 -0.09800
C 	C 	0.96107 0.25907 0.86548 0.07100
C 	C 	0.01734 0.22620 0.85569 -0.01400
C 	C 	0.02492 0.21411 0.82561 -0.07600
C 	C 	0.99249 0.25524 0.80548 0.04300
N 	N 	0.01124 0.25814 0.77669 -0.17700
H 	H 	0.90486 0.31230 0.79918 0.03500
H 	H 	0.04759 0.20061 0.87140 0.04700
N 	N 	0.95005 0.26506 0.89473 -0.19800
H 	H 	0.98389 0.28450 0.76146 0.05700
H 	H 	0.05488 0.23630 0.76941 0.07700
H 	H 	0.91066 0.29174 0.90267 0.06300
H 	H 	0.98263 0.24469 0.90996 0.07200
C 	C 	0.75741 0.63555 0.80197 -0.05300
C 	C 	0.80262 0.63200 0.82690 -0.09300
C 	C 	0.87751 0.69402 0.83236 0.10900
C 	C 	0.90265 0.76206 0.81416 -0.04600
C 	C 	0.85598 0.76794 0.78993 -0.10600
C 	C 	0.78329 0.70314 0.78333 0.10900
N 	N 	0.73735 0.70612 0.75968 -0.20400
H 	H 	0.70108 0.58651 0.79740 0.03300
H 	H 	0.95762 0.81214 0.81949 0.02300
N 	N 	0.92556 0.68864 0.85502 -0.20000
H 	H 	0.68361 0.65815 0.75518 0.08200
H 	H 	0.75442 0.75538 0.74543 0.10300
H 	H 	0.91101 0.63661 0.86795 0.11000
H 	H 	0.97980 0.73605 0.85935 0.08000
