data_crystal

_cell_length_a 17.13677
_cell_length_b 18.83726
_cell_length_c 51.41656
_cell_angle_alpha 90.61333
_cell_angle_beta  90.59701
_cell_angle_gamma 119.69055

_symmetry_space_group_name_	'P 1'
_symmetry_space_group_name_H-M	'P 1'

loop_
_symmetry_equiv_pos_as_xyz
  x,y,z

loop_
_atom_site_label
_atom_site_type_symbol
_atom_site_fract_x
_atom_site_fract_y
_atom_site_fract_z
_atom_site_charge
C 	C 	0.51436 0.26140 0.89148 0.34000
C 	C 	0.73181 0.47531 0.90049 0.32600
C 	C 	0.67964 0.14990 0.91284 0.34200
Ni	Ni	0.59930 0.35833 0.94053 1.12000
Ni	Ni	0.70676 0.30754 0.89947 1.12800
Ni	Ni	0.68954 0.25117 0.95907 1.12600
O 	O 	0.64348 0.18620 0.90004 -0.37200
O 	O 	0.50350 0.26799 0.91640 -0.35800
O 	O 	0.59536 0.30003 0.88147 -0.33900
O 	O 	0.52956 0.28411 0.97124 -0.36400
O 	O 	0.55434 0.17847 0.96198 -0.36500
O 	O 	0.64997 0.44314 0.91039 -0.34500
O 	O 	0.76866 0.42972 0.89483 -0.35400
O 	O 	0.69046 0.15948 0.93823 -0.35300
O 	O 	0.68133 0.32200 0.93425 -0.71800
H 	H 	0.73744 0.37317 0.93824 0.15900
C 	C 	0.69908 0.50958 0.72407 0.32200
C 	C 	0.51222 0.18086 0.67617 0.33400
C 	C 	0.52750 0.28638 0.74998 0.33700
C 	C 	0.67177 0.37087 0.64396 0.31500
Ni	Ni	0.57404 0.35078 0.69640 1.11800
Ni	Ni	0.71152 0.28260 0.68481 1.12600
Ni	Ni	0.72344 0.36912 0.73998 1.13000
O 	O 	0.64530 0.47703 0.70334 -0.34400
O 	O 	0.69635 0.46275 0.74353 -0.34800
O 	O 	0.68163 0.19780 0.71187 -0.36200
O 	O 	0.49596 0.22472 0.69290 -0.36300
O 	O 	0.59224 0.20914 0.66608 -0.37300
O 	O 	0.52615 0.33964 0.73396 -0.34700
O 	O 	0.60381 0.28930 0.75606 -0.34000
O 	O 	0.59791 0.35884 0.65616 -0.36200
O 	O 	0.73549 0.36126 0.65550 -0.37400
O 	O 	0.67882 0.34809 0.70490 -0.71700
H 	H 	0.72133 0.40131 0.69759 0.15400
C 	C 	0.17187 0.05952 0.78609 0.32100
C 	C 	0.17016 0.05269 0.84461 0.29200
Ni	Ni	0.03118 0.07195 0.81302 1.12100
Ni	Ni	0.04438 0.90500 0.81269 1.11600
O 	O 	0.11198 0.08209 0.78401 -0.36100
O 	O 	0.12758 0.97069 0.84301 -0.33400
O 	O 	0.12673 0.09451 0.84066 -0.34000
O 	O 	0.14565 0.98181 0.78933 -0.33500
C 	C 	0.29300 0.76454 0.44871 0.30400
C 	C 	0.23699 0.50008 0.37587 0.34300
C 	C 	0.31412 0.62309 0.46416 0.31500
C 	C 	0.23989 0.70963 0.36204 0.31500
C 	C 	0.49001 0.62388 0.40481 0.32200
C 	C 	0.53731 0.83612 0.38163 0.34000
Ni	Ni	0.22789 0.62054 0.41223 1.11600
Ni	Ni	0.38422 0.66674 0.36953 1.13200
Ni	Ni	0.44376 0.74070 0.42781 1.12600
O 	O 	0.23508 0.72364 0.42962 -0.35800
O 	O 	0.38120 0.79597 0.44594 -0.35300
O 	O 	0.43641 0.59973 0.38406 -0.35300
O 	O 	0.21121 0.50847 0.39903 -0.34500
O 	O 	0.27064 0.56214 0.36030 -0.35600
O 	O 	0.50798 0.83925 0.40513 -0.34800
O 	O 	0.24099 0.58504 0.44958 -0.36100
O 	O 	0.39371 0.65000 0.45411 -0.37600
O 	O 	0.50760 0.76645 0.36851 -0.35700
O 	O 	0.18811 0.64401 0.37599 -0.33400
O 	O 	0.32063 0.72461 0.35413 -0.32000
O 	O 	0.52308 0.69834 0.41446 -0.36400
O 	O 	0.34922 0.68624 0.40298 -0.71500
H 	H 	0.34762 0.73640 0.39914 0.16000
C 	C 	0.18746 0.65447 0.23436 0.30700
C 	C 	0.33650 0.62268 0.13695 0.31800
C 	C 	0.26632 0.50017 0.21598 0.34900
C 	C 	0.23751 0.75890 0.15766 0.30800
C 	C 	0.52111 0.70006 0.19242 0.32000
C 	C 	0.48548 0.84989 0.22429 0.32700
Ni	Ni	0.21896 0.60342 0.18184 1.11900
Ni	Ni	0.41150 0.76953 0.17209 1.12600
Ni	Ni	0.37311 0.67644 0.22715 1.13200
O 	O 	0.15253 0.62926 0.21062 -0.34300
O 	O 	0.24951 0.63764 0.24379 -0.32600
O 	O 	0.50467 0.73503 0.17271 -0.37800
O 	O 	0.28681 0.57180 0.15496 -0.35600
O 	O 	0.36128 0.70079 0.13889 -0.36900
O 	O 	0.41478 0.79335 0.23608 -0.35300
O 	O 	0.20002 0.50772 0.20606 -0.34300
O 	O 	0.34730 0.56273 0.21728 -0.36900
O 	O 	0.48083 0.86122 0.19894 -0.34800
O 	O 	0.20521 0.67902 0.15473 -0.36000
O 	O 	0.32197 0.80842 0.16541 -0.35800
O 	O 	0.49973 0.70902 0.21635 -0.36200
O 	O 	0.32723 0.69140 0.19532 -0.71600
H 	H 	0.30513 0.72742 0.20177 0.15500
C 	C 	0.10319 0.89618 0.27044 0.31100
C 	C 	0.15224 0.20440 0.32095 0.32900
C 	C 	0.10428 0.92108 0.32845 0.31500
C 	C 	0.16236 0.19349 0.25957 0.32300
Ni	Ni	0.16624 0.06651 0.29363 1.11800
O 	O 	0.16296 0.97517 0.26926 -0.33200
O 	O 	0.01621 0.87112 0.27180 -0.34100
O 	O 	0.20427 0.17224 0.31673 -0.32600
O 	O 	0.06580 0.15766 0.32105 -0.36000
O 	O 	0.16613 0.99807 0.32522 -0.32600
O 	O 	0.01909 0.90042 0.32777 -0.33800
O 	O 	0.19339 0.14215 0.26196 -0.34100
O 	O 	0.07584 0.16860 0.26223 -0.34400
O 	O 	0.03985 0.02413 0.28930 -0.71500
H 	H 	0.03857 0.01767 0.27016 0.15100
C 	C 	0.27660 0.34016 0.25759 0.09900
C 	C 	0.21478 0.26800 0.24450 -0.08800
C 	C 	0.18468 0.27279 0.21933 0.10900
C 	C 	0.20466 0.34931 0.20940 0.11200
C 	C 	0.25036 0.42020 0.22535 -0.10300
C 	C 	0.28692 0.41531 0.24962 0.11600
Br	Br	0.33960 0.50776 0.27346 -0.17100
Br	Br	0.35122 0.33655 0.28510 -0.15800
Br	Br	0.17445 0.35731 0.17371 -0.18300
Br	Br	0.11543 0.17439 0.19878 -0.15400
C 	C 	0.59156 0.84243 0.25735 0.10700
C 	C 	0.57541 0.88582 0.23750 -0.09200
C 	C 	0.64951 0.95316 0.22638 0.11200
C 	C 	0.67854 0.85549 0.26176 0.10500
Br	Br	0.69576 0.78291 0.28442 -0.16900
Br	Br	0.50022 0.77609 0.28158 -0.17000
Br	Br	0.63362 0.03477 0.20861 -0.15300
C 	C 	0.07537 0.69956 0.24236 0.10200
C 	C 	0.15503 0.70126 0.25027 -0.08400
C 	C 	0.21378 0.76406 0.26766 0.10300
C 	C 	0.20360 0.83336 0.27185 0.09600
C 	C 	0.12886 0.83573 0.26083 -0.08600
C 	C 	0.06888 0.77064 0.24427 0.10500
Br	Br	0.98872 0.78392 0.22079 -0.15900
Br	Br	0.97223 0.59816 0.23135 -0.13700
Br	Br	0.29501 0.92597 0.29127 -0.15600
Br	Br	0.28996 0.74558 0.29076 -0.13200
C 	C 	0.69706 0.96610 0.33252 0.11300
C 	C 	0.70272 0.91829 0.38363 0.11000
C 	C 	0.62095 0.90575 0.37281 -0.09400
C 	C 	0.62107 0.93796 0.34823 0.10700
Br	Br	0.51423 0.93608 0.33528 -0.11600
Br	Br	0.70332 0.02185 0.30075 -0.16600
Br	Br	0.71012 0.89650 0.41983 -0.17800
C 	C 	0.15025 0.39275 0.34275 0.11400
C 	C 	0.20651 0.41783 0.36478 -0.10300
C 	C 	0.24764 0.37248 0.37256 0.11100
C 	C 	0.23927 0.30709 0.35670 0.10800
C 	C 	0.18882 0.28691 0.33306 -0.08800
C 	C 	0.14942 0.33437 0.32556 0.10400
Br	Br	0.08936 0.31650 0.29230 -0.18500
Br	Br	0.06743 0.43268 0.33760 -0.12900
Br	Br	0.29518 0.24501 0.36779 -0.13400
Br	Br	0.30636 0.39384 0.40613 -0.18200
C 	C 	0.20241 0.89214 0.35828 0.11100
C 	C 	0.13049 0.86348 0.34008 -0.08700
C 	C 	0.08816 0.78078 0.33150 0.09400
C 	C 	0.12687 0.73209 0.33759 0.10600
C 	C 	0.20435 0.76357 0.35370 -0.08500
C 	C 	0.24170 0.84370 0.36418 0.10600
Br	Br	0.34516 0.88688 0.38717 -0.16500
Br	Br	0.23793 0.99149 0.37811 -0.12800
Br	Br	0.07486 0.62291 0.32312 -0.12300
Br	Br	0.97307 0.73105 0.31359 -0.16800
C 	C 	0.20809 0.83014 0.51354 0.00300
C 	C 	0.15612 0.77048 0.53156 -0.03000
C 	C 	0.14983 0.79358 0.55705 -0.03800
C 	C 	0.19487 0.87655 0.56445 0.01100
C 	C 	0.23748 0.93618 0.54547 -0.02600
C 	C 	0.24439 0.91295 0.52011 -0.03000
C 	C 	0.21372 0.90036 0.59216 0.00400
C 	C 	0.19331 0.95833 0.60255 -0.01600
C 	C 	0.23963 0.00423 0.62470 -0.05700
C 	C 	0.30610 0.99204 0.63649 0.03600
C 	C 	0.31588 0.92559 0.62854 -0.03700
C 	C 	0.27032 0.88016 0.60630 -0.02900
C 	C 	0.37760 0.05778 0.65118 0.04500
C 	C 	0.43771 0.11263 0.66350 -0.07500
C 	C 	0.23722 0.80727 0.49043 0.05400
C 	C 	0.26177 0.78834 0.47104 -0.08400
H 	H 	0.12487 0.70626 0.52627 0.04300
H 	H 	0.11462 0.74705 0.57135 0.04200
H 	H 	0.27117 0.00049 0.55086 0.04000
H 	H 	0.28297 0.95944 0.50607 0.05800
H 	H 	0.14760 0.97271 0.59222 0.04700
H 	H 	0.22958 0.05396 0.63124 0.05800
H 	H 	0.36510 0.91405 0.63809 0.06300
H 	H 	0.28518 0.83429 0.59876 0.04500
C 	C 	0.16502 0.55756 0.66029 -0.03400
C 	C 	0.21567 0.58594 0.63774 -0.02800
C 	C 	0.20228 0.63757 0.62105 0.00600
C 	C 	0.22662 0.64162 0.59346 0.01300
C 	C 	0.31713 0.67967 0.58628 -0.04200
C 	C 	0.33937 0.67655 0.56029 -0.02500
C 	C 	0.27121 0.63484 0.54149 -0.00500
C 	C 	0.18103 0.59739 0.54866 -0.02800
C 	C 	0.15877 0.60115 0.57447 -0.04300
C 	C 	0.29294 0.63252 0.51461 0.05500
C 	C 	0.30561 0.62801 0.49178 -0.10000
H 	H 	0.16968 0.51188 0.67179 0.06200
H 	H 	0.25922 0.56218 0.63211 0.05100
H 	H 	0.37001 0.71094 0.60080 0.05300
H 	H 	0.40931 0.70621 0.55485 0.04900
H 	H 	0.12802 0.56563 0.53419 0.04400
H 	H 	0.08874 0.57133 0.57983 0.04500
C 	C 	0.67416 0.39536 0.56528 -0.00200
C 	C 	0.62460 0.32488 0.54978 -0.02500
C 	C 	0.61041 0.33170 0.52331 -0.03900
C 	C 	0.64529 0.40916 0.51224 0.01600
C 	C 	0.70001 0.47937 0.52747 -0.03900
C 	C 	0.71435 0.47240 0.55389 -0.02500
C 	C 	0.61365 0.41762 0.48625 0.01400
C 	C 	0.67590 0.46575 0.46749 -0.03200
C 	C 	0.64815 0.49465 0.44640 -0.02300
C 	C 	0.55817 0.47535 0.44396 0.01200
C 	C 	0.49433 0.41862 0.46073 -0.02200
C 	C 	0.52193 0.39000 0.48188 -0.03200
C 	C 	0.53583 0.52720 0.42907 0.07100
C 	C 	0.51477 0.56951 0.41685 -0.06900
C 	C 	0.67548 0.38904 0.59313 0.05400
C 	C 	0.67561 0.38217 0.61639 -0.08900
H 	H 	0.59417 0.26500 0.55842 0.04700
H 	H 	0.56908 0.27707 0.51168 0.05200
H 	H 	0.72752 0.53949 0.51914 0.05100
H 	H 	0.75354 0.52709 0.56571 0.05000
H 	H 	0.74653 0.48533 0.47023 0.05400
H 	H 	0.69771 0.53698 0.43314 0.06300
H 	H 	0.42429 0.40201 0.45867 0.06800
H 	H 	0.47291 0.35140 0.49591 0.05100
Br	Br	0.61338 0.02013 0.71739 -0.14900
C 	C 	0.40203 0.14310 0.75545 0.10700
C 	C 	0.44354 0.22639 0.76261 -0.09600
C 	C 	0.39969 0.25357 0.77953 0.10800
C 	C 	0.31058 0.19990 0.78689 0.09900
C 	C 	0.26565 0.11719 0.77784 -0.09100
C 	C 	0.31096 0.09054 0.76093 0.10400
Br	Br	0.24605 0.98833 0.74183 -0.13200
Br	Br	0.47141 0.09920 0.74028 -0.14600
Br	Br	0.24953 0.24231 0.80782 -0.18100
Br	Br	0.46383 0.36329 0.79385 -0.11800
C 	C 	0.69078 0.62673 0.74360 0.11200
Br	Br	0.66704 0.74821 0.77147 -0.13100
Br	Br	0.56269 0.55848 0.74723 -0.13400
C 	C 	0.27218 0.49101 0.98381 0.01000
C 	C 	0.30749 0.49948 0.01077 0.01600
C 	C 	0.25548 0.44105 0.02927 -0.03900
C 	C 	0.27226 0.45982 0.05582 -0.02600
C 	C 	0.34077 0.53703 0.06410 -0.00100
C 	C 	0.39910 0.59178 0.04580 -0.02600
C 	C 	0.38290 0.57285 0.01919 -0.04000
C 	C 	0.33994 0.56566 0.09013 0.05500
C 	C 	0.33979 0.59022 0.11187 -0.08700
H 	H 	0.25954 0.37263 0.97610 0.05400
H 	H 	0.19789 0.38360 0.02310 0.04900
H 	H 	0.22792 0.41651 0.06987 0.05200
H 	H 	0.45350 0.65104 0.05208 0.05000
H 	H 	0.42522 0.61747 0.00515 0.05400
C 	C 	0.26736 0.05437 0.00649 -0.01300
C 	C 	0.24222 0.97260 0.01072 -0.00700
C 	C 	0.17945 0.92881 0.02969 -0.04400
C 	C 	0.14189 0.96694 0.04467 0.03000
C 	C 	0.15736 0.04467 0.03764 -0.05300
C 	C 	0.22078 0.08866 0.01877 -0.01400
C 	C 	0.10777 0.93554 0.07081 0.00500
C 	C 	0.15384 0.98363 0.09282 -0.02200
C 	C 	0.15711 0.94597 0.11574 -0.02900
C 	C 	0.11495 0.86062 0.11653 0.00500
C 	C 	0.05283 0.81392 0.09680 -0.03300
C 	C 	0.04870 0.85155 0.07392 -0.03500
C 	C 	0.15624 0.82413 0.13168 0.05500
C 	C 	0.19135 0.79418 0.14447 -0.08000
H 	H 	0.16636 0.86798 0.03437 0.05200
H 	H 	0.12616 0.07362 0.04833 0.05300
H 	H 	0.23798 0.15120 0.01499 0.04800
H 	H 	0.19564 0.04924 0.09125 0.04500
H 	H 	0.20128 0.98288 0.13159 0.06300
H 	H 	0.01576 0.74785 0.09788 0.04400
H 	H 	0.00786 0.81426 0.05762 0.04500
C 	C 	0.70596 0.63375 0.17316 0.01200
C 	C 	0.67778 0.55261 0.16585 -0.02100
C 	C 	0.72261 0.53587 0.14623 -0.03000
C 	C 	0.79674 0.60034 0.13420 0.01500
C 	C 	0.83425 0.67954 0.14500 -0.02900
C 	C 	0.78897 0.69613 0.16454 -0.01800
C 	C 	0.82076 0.58816 0.10762 0.01400
C 	C 	0.80785 0.62911 0.08675 -0.04000
C 	C 	0.80410 0.60129 0.06120 -0.02700
C 	C 	0.81327 0.53253 0.05632 0.00100
C 	C 	0.83615 0.49735 0.07682 -0.02500
C 	C 	0.84011 0.52522 0.10242 -0.03800
C 	C 	0.78232 0.48918 0.03176 0.05300
C 	C 	0.63977 0.65458 0.18153 0.06400
C 	C 	0.58594 0.67411 0.18846 -0.07400
H 	H 	0.61562 0.50343 0.17321 0.06100
H 	H 	0.69477 0.47387 0.13876 0.05500
H 	H 	0.89393 0.72932 0.13672 0.05500
H 	H 	0.81356 0.75876 0.17096 0.06900
H 	H 	0.79454 0.67883 0.09044 0.05000
H 	H 	0.78810 0.62984 0.04541 0.05200
H 	H 	0.84519 0.44514 0.07316 0.05300
H 	H 	0.85249 0.49451 0.11829 0.05700
Br	Br	0.55407 0.00957 0.87159 -0.13700
Br	Br	0.68124 0.00775 0.82296 -0.15800
Br	Br	0.99738 0.19750 0.88757 -0.12500
C 	C 	0.27061 0.15545 0.87764 0.10700
C 	C 	0.25848 0.09699 0.85844 -0.07900
C 	C 	0.33515 0.09771 0.84813 0.09500
C 	C 	0.42244 0.16036 0.85578 0.11200
C 	C 	0.43263 0.22009 0.87449 -0.09300
C 	C 	0.35585 0.22293 0.88228 0.11300
Br	Br	0.36747 0.32100 0.89804 -0.16800
Br	Br	0.17263 0.13811 0.89958 -0.15800
Br	Br	0.52583 0.17042 0.83809 -0.14500
Br	Br	0.32144 0.00953 0.82574 -0.15800
C 	C 	0.72535 0.57485 0.87011 0.10300
C 	C 	0.77235 0.55771 0.88939 -0.09600
Br	Br	0.61083 0.48941 0.85671 -0.12500
C 	C 	0.86727 0.34078 0.93363 0.29500
O 	O 	0.82367 0.31484 0.95591 -0.36100
O 	O 	0.82604 0.31519 0.91039 -0.35300
C 	C 	0.73066 0.21404 0.73328 0.34500
C 	C 	0.88028 0.42224 0.70628 0.30000
O 	O 	0.84860 0.44343 0.72669 -0.34200
O 	O 	0.84117 0.34570 0.69747 -0.36100
O 	O 	0.76008 0.28420 0.74604 -0.35200
C 	C 	0.89981 0.78893 0.85095 0.34000
C 	C 	0.86228 0.02449 0.78417 0.31300
C 	C 	0.88091 0.80590 0.77833 0.32200
C 	C 	0.87317 0.05080 0.84602 0.31300
Ni	Ni	0.84914 0.89575 0.82149 1.12800
O 	O 	0.86632 0.83799 0.85306 -0.34100
O 	O 	0.96476 0.80264 0.83429 -0.33700
O 	O 	0.80975 0.94947 0.79236 -0.31800
O 	O 	0.94835 0.05277 0.78248 -0.34400
O 	O 	0.83529 0.79825 0.79926 -0.34400
O 	O 	0.97008 0.84750 0.77948 -0.32400
O 	O 	0.83850 0.97174 0.84843 -0.33800
O 	O 	0.95813 0.09736 0.83920 -0.32500
O 	O 	0.97542 0.95861 0.81994 -0.69800
H 	H 	0.98520 0.96517 0.83895 0.16400
C 	C 	0.84454 0.97465 0.32339 0.34500
C 	C 	0.84298 0.95415 0.26159 0.32200
Ni	Ni	0.99060 0.09526 0.28994 1.13500
Ni	Ni	0.95488 0.91294 0.29618 1.13400
O 	O 	0.89732 0.05102 0.31735 -0.35700
O 	O 	0.87410 0.90334 0.26579 -0.34300
O 	O 	0.89731 0.03428 0.26203 -0.34800
O 	O 	0.87246 0.92084 0.32235 -0.34800
C 	C 	0.73649 0.96550 0.23058 0.11200
C 	C 	0.75218 0.92134 0.24996 -0.09100
Br	Br	0.83091 0.03392 0.20732 -0.14500
C 	C 	0.77087 0.95853 0.34116 -0.09400
C 	C 	0.77744 0.94269 0.36760 0.11100
Br	Br	0.88987 0.95986 0.38219 -0.13400
C 	C 	0.10091 0.58067 0.66617 0.02800
C 	C 	0.14802 0.66995 0.62907 -0.03000
C 	C 	0.09801 0.64200 0.65172 -0.03500
C 	C 	0.02443 0.52704 0.68132 0.02300
C 	C 	0.96061 0.48185 0.69403 -0.02500
H 	H 	0.13833 0.71097 0.61661 0.04300
H 	H 	0.05063 0.66218 0.65657 0.06700
C 	C 	0.85349 0.19973 0.75362 0.11400
C 	C 	0.77014 0.16247 0.74047 -0.10600
C 	C 	0.72039 0.07605 0.73888 0.11400
C 	C 	0.75395 0.03027 0.75162 0.10400
C 	C 	0.82424 0.06949 0.77043 -0.08400
C 	C 	0.87153 0.15571 0.77187 0.10200
Br	Br	0.95939 0.21451 0.79895 -0.17200
Br	Br	0.94772 0.30618 0.74390 -0.15000
Br	Br	0.72259 0.92404 0.73789 -0.12600
C 	C 	0.73910 0.59800 0.72936 -0.09800
C 	C 	0.83004 0.65175 0.72392 0.10600
C 	C 	0.87691 0.72831 0.73707 0.10200
C 	C 	0.83160 0.74980 0.75569 -0.08400
C 	C 	0.73616 0.70418 0.75576 0.10600
Br	Br	0.99518 0.80793 0.72592 -0.12800
Br	Br	0.88723 0.62340 0.69701 -0.19400
C 	C 	0.25052 0.54911 0.97448 -0.02600
C 	C 	0.96324 0.37941 0.93515 -0.02200
H 	H 	0.27847 0.60862 0.98393 0.05100
C 	C 	0.73588 0.05916 0.85582 0.09600
C 	C 	0.82852 0.08888 0.86045 -0.08100
C 	C 	0.86871 0.13388 0.88359 0.10100
C 	C 	0.81463 0.13583 0.90356 0.11000
C 	C 	0.72393 0.11188 0.89819 -0.11100
C 	C 	0.68318 0.06752 0.87513 0.11100
Br	Br	0.85974 0.15345 0.93890 -0.17700
C 	C 	0.86087 0.61747 0.89655 0.10200
C 	C 	0.90322 0.69301 0.88376 0.12000
C 	C 	0.85534 0.71054 0.86484 -0.10000
C 	C 	0.76432 0.65292 0.85930 0.10800
Br	Br	0.69085 0.68158 0.83817 -0.15900
Br	Br	0.02536 0.77357 0.89286 -0.18200
Br	Br	0.92322 0.59636 0.92422 -0.17800
C 	C 	0.50240 0.20579 0.97091 0.33000
O 	O 	0.68942 0.43431 0.96923 -0.35500
C 	C 	0.04233 0.40984 0.94009 0.02400
O 	O 	0.69152 0.32526 0.98896 -0.36500
C 	C 	0.71952 0.40491 0.98779 0.30600
C 	C 	0.41922 0.15071 0.98283 -0.09200
C 	C 	0.13671 0.44562 0.94598 0.03000
H 	H 	0.13903 0.33223 0.94297 0.07500
H 	H 	0.16032 0.56883 0.95026 0.06400
C 	C 	0.17153 0.39365 0.95122 -0.03000
C 	C 	0.18349 0.52656 0.95531 -0.03300
C 	C 	0.35008 0.10639 0.99358 0.06600
C 	C 	0.75640 0.45295 0.01119 -0.08000
C 	C 	0.23937 0.41631 0.97018 -0.02500
H 	H 	0.27609 0.94488 0.00072 0.05300
