data_crystal

_cell_length_a 18.12555
_cell_length_b 19.64545
_cell_length_c 26.58762
_cell_angle_alpha 95.43590
_cell_angle_beta  95.43597
_cell_angle_gamma 126.41686

_symmetry_space_group_name_	'P 1'
_symmetry_space_group_name_H-M	'P 1'

loop_
_symmetry_equiv_pos_as_xyz
  x,y,z

loop_
_atom_site_label
_atom_site_type_symbol
_atom_site_fract_x
_atom_site_fract_y
_atom_site_fract_z
_atom_site_charge
C 	C 	0.90940 0.00784 0.99015 0.03600
C 	C 	0.00589 0.05415 0.99189 -0.07900
C 	C 	0.04444 0.01015 0.98633 0.03100
C 	C 	0.98700 0.92035 0.97972 -0.07300
C 	C 	0.89113 0.87411 0.97830 0.02900
C 	C 	0.85206 0.91760 0.98283 -0.07900
H 	H 	0.05042 0.12382 0.99688 0.05100
H 	H 	0.01699 0.88644 0.97588 0.04900
H 	H 	0.77731 0.88136 0.98034 0.05200
C 	C 	0.95850 0.03321 0.48115 0.04800
C 	C 	0.90681 0.94389 0.47859 -0.09600
C 	C 	0.94959 0.90395 0.47192 0.04600
C 	C 	0.04399 0.95332 0.46814 -0.09900
C 	C 	0.09631 0.04257 0.47179 0.04800
C 	C 	0.05311 0.08230 0.47714 -0.09400
H 	H 	0.83390 0.90582 0.48198 0.05200
H 	H 	0.07751 0.92269 0.46409 0.05200
H 	H 	0.09341 0.15131 0.47940 0.05000
Cu	Cu	0.62133 0.23049 0.00226 0.91400
Cu	Cu	0.66392 0.19167 0.88959 0.87700
Cu	Cu	0.64577 0.34655 0.92579 0.91000
Cu	Cu	0.58860 0.37021 0.02458 0.87900
C 	C 	0.63811 0.30206 0.10710 0.28800
O 	O 	0.48231 0.16091 0.00283 -0.38800
C 	C 	0.67400 0.30699 0.82799 0.28900
O 	O 	0.67413 0.35794 0.99883 -0.60500
O 	O 	0.59837 0.22483 0.92646 -0.62200
O 	O 	0.70673 0.19641 0.00762 -0.39600
O 	O 	0.64274 0.10920 0.92893 -0.42600
O 	O 	0.58794 0.32640 0.08957 -0.39300
O 	O 	0.69810 0.46614 0.92909 -0.37600
C 	C 	0.68738 0.50931 0.96494 0.28900
C 	C 	0.43276 0.18312 0.98156 0.31200
O 	O 	0.47524 0.25921 0.96901 -0.39400
O 	O 	0.61978 0.46883 0.99141 -0.38400
O 	O 	0.65674 0.25942 0.07601 -0.36300
C 	C 	0.69598 0.13589 0.97416 0.32000
O 	O 	0.63156 0.33234 0.85160 -0.38100
O 	O 	0.72270 0.28844 0.85455 -0.42600
H 	H 	0.74042 0.40406 0.01462 0.13300
H 	H 	0.53122 0.18422 0.91089 0.15500
Cu	Cu	0.66881 0.25097 0.50881 0.92700
Cu	Cu	0.76205 0.26294 0.40685 0.86700
Cu	Cu	0.71178 0.37437 0.43434 0.89100
Cu	Cu	0.65373 0.40142 0.53081 0.89200
C 	C 	0.67634 0.31627 0.61255 0.28800
O 	O 	0.53026 0.19248 0.50329 -0.36500
C 	C 	0.69943 0.31315 0.32523 0.28400
O 	O 	0.73633 0.38236 0.50749 -0.64200
O 	O 	0.66065 0.25191 0.43404 -0.64200
O 	O 	0.72769 0.19135 0.51406 -0.36500
O 	O 	0.83634 0.27918 0.46849 -0.44100
O 	O 	0.63460 0.34747 0.59325 -0.38800
O 	O 	0.77041 0.49626 0.43852 -0.38600
C 	C 	0.76403 0.54392 0.47375 0.29500
C 	C 	0.48987 0.22137 0.47960 0.29100
O 	O 	0.54137 0.29974 0.47016 -0.39900
O 	O 	0.70120 0.50876 0.50360 -0.39800
O 	O 	0.69603 0.27346 0.58260 -0.36100
C 	C 	0.80280 0.21724 0.49504 0.30000
O 	O 	0.69334 0.36320 0.35888 -0.38100
O 	O 	0.70899 0.25572 0.33921 -0.42000
H 	H 	0.80268 0.42499 0.52441 0.15900
H 	H 	0.59820 0.20949 0.41202 0.17300
C 	C 	0.67706 0.30990 0.77311 -0.08700
C 	C 	0.62285 0.23267 0.73701 -0.02600
C 	C 	0.62369 0.23358 0.68445 0.03600
C 	C 	0.68164 0.31263 0.66776 -0.07400
C 	C 	0.73696 0.38981 0.70405 -0.03000
C 	C 	0.73475 0.38891 0.75653 0.04200
S 	S 	0.54800 0.13589 0.63988 -0.04000
S 	S 	0.80431 0.48701 0.80100 -0.04800
H 	H 	0.75359 0.51664 0.80902 0.04100
H 	H 	0.46521 0.12233 0.62458 0.03500
H 	H 	0.57854 0.17186 0.74974 0.01900
H 	H 	0.78062 0.45073 0.69132 0.03200
C 	C 	0.65419 0.30440 0.16275 -0.07600
C 	C 	0.72190 0.38338 0.19592 -0.02700
C 	C 	0.73590 0.38772 0.24926 0.03300
C 	C 	0.68096 0.31217 0.26980 -0.07700
C 	C 	0.61225 0.23346 0.23655 -0.02600
C 	C 	0.59836 0.22920 0.18332 0.03700
S 	S 	0.82435 0.48743 0.28954 -0.05300
S 	S 	0.50920 0.12976 0.14302 -0.04300
H 	H 	0.42655 0.11841 0.13968 0.03200
H 	H 	0.90599 0.49676 0.29631 0.02600
H 	H 	0.76405 0.44146 0.18021 0.03000
H 	H 	0.56949 0.17538 0.25217 0.04000
C 	C 	0.80513 0.66243 0.42704 -0.01900
C 	C 	0.81498 0.63646 0.47299 -0.10400
C 	C 	0.86848 0.69865 0.51873 0.08800
C 	C 	0.90744 0.78518 0.51823 -0.08200
C 	C 	0.89750 0.81112 0.47238 -0.01700
C 	C 	0.84609 0.74945 0.42636 0.03300
C 	C 	0.83542 0.77626 0.37654 -0.17500
H 	H 	0.76434 0.61469 0.39197 0.04300
H 	H 	0.94763 0.83290 0.55336 0.04500
C 	C 	0.88369 0.67314 0.56820 -0.19500
H 	H 	0.79107 0.72013 0.34431 0.06000
H 	H 	0.90499 0.82125 0.36627 0.06300
H 	H 	0.80230 0.80873 0.38062 0.06100
H 	H 	0.90162 0.62837 0.56113 0.05700
H 	H 	0.81943 0.64140 0.58494 0.06400
H 	H 	0.94211 0.73009 0.59692 0.06100
C 	C 	0.89479 0.17409 0.53581 -0.01500
C 	C 	0.83545 0.16400 0.49296 -0.11100
C 	C 	0.81061 0.10552 0.44753 0.08200
C 	C 	0.85106 0.06291 0.44447 -0.07900
C 	C 	0.91281 0.07510 0.48670 -0.01600
C 	C 	0.93240 0.12877 0.53338 0.03200
C 	C 	0.99562 0.14020 0.58005 -0.17100
H 	H 	0.91268 0.21803 0.57084 0.03700
H 	H 	0.83524 0.02088 0.40893 0.04600
C 	C 	0.74435 0.09112 0.40145 -0.19100
H 	H 	0.98946 0.16993 0.61548 0.06100
H 	H 	0.06928 0.18252 0.57482 0.05800
H 	H 	0.97699 0.07693 0.58604 0.06400
H 	H 	0.78147 0.14619 0.38109 0.02100
H 	H 	0.68357 0.08439 0.41340 0.04300
H 	H 	0.71662 0.03123 0.37402 0.06200
C 	C 	0.23379 0.11093 0.42883 -0.08300
C 	C 	0.19812 0.09505 0.47445 -0.01700
C 	C 	0.25869 0.12183 0.52181 0.03300
C 	C 	0.35360 0.16145 0.52257 -0.02100
C 	C 	0.38915 0.17621 0.47691 -0.10700
C 	C 	0.32898 0.15087 0.42960 0.09100
C 	C 	0.36571 0.16589 0.38001 -0.20000
H 	H 	0.18700 0.09041 0.39259 0.04600
H 	H 	0.40023 0.18172 0.55885 0.04000
C 	C 	0.22193 0.10649 0.57141 -0.17500
H 	H 	0.30821 0.13316 0.34596 0.06400
H 	H 	0.40592 0.14030 0.37620 0.06400
H 	H 	0.41173 0.23595 0.37953 0.07400
H 	H 	0.17435 0.03628 0.57134 0.06300
H 	H 	0.18331 0.13359 0.57578 0.06100
H 	H 	0.27925 0.13760 0.60543 0.06000
C 	C 	0.82935 0.74718 0.01950 -0.11000
C 	C 	0.83258 0.78024 0.97469 0.01600
C 	C 	0.78792 0.72422 0.92639 0.02800
C 	C 	0.74130 0.63561 0.92370 -0.02100
C 	C 	0.73923 0.60265 0.96853 -0.07600
C 	C 	0.78522 0.65910 0.01677 0.06200
C 	C 	0.78767 0.62590 0.06536 -0.18700
H 	H 	0.86394 0.79068 0.05646 0.04700
H 	H 	0.70617 0.59218 0.88675 0.04300
C 	C 	0.79118 0.75888 0.87772 -0.17300
H 	H 	0.84117 0.67919 0.09749 0.05800
H 	H 	0.80544 0.58086 0.05927 0.04500
H 	H 	0.71862 0.59219 0.07713 0.05400
H 	H 	0.86452 0.80259 0.87210 0.06300
H 	H 	0.76190 0.79496 0.88024 0.06300
H 	H 	0.74996 0.70643 0.84332 0.06000
C 	C 	0.87074 0.09537 0.95088 -0.08700
C 	C 	0.86713 0.05319 0.99129 0.01700
C 	C 	0.81736 0.04917 0.03031 0.00300
C 	C 	0.76219 0.07739 0.02456 -0.03600
C 	C 	0.76130 0.11469 0.98232 -0.08900
C 	C 	0.82128 0.12936 0.94725 0.08900
C 	C 	0.83192 0.17996 0.90555 -0.19200
H 	H 	0.91107 0.10066 0.92177 0.05000
H 	H 	0.71908 0.06926 0.05258 0.04000
C 	C 	0.82057 0.01279 0.07722 -0.15900
H 	H 	0.89720 0.20432 0.89076 0.06500
H 	H 	0.83576 0.23689 0.92059 0.03600
H 	H 	0.77199 0.13816 0.87298 0.03800
H 	H 	0.89180 0.03257 0.09049 0.05500
H 	H 	0.77011 0.94143 0.06811 0.04900
H 	H 	0.80223 0.03661 0.10963 0.05700
C 	C 	0.30120 0.11620 0.02846 -0.04000
C 	C 	0.33206 0.13098 0.98148 -0.08900
C 	C 	0.26807 0.10619 0.93601 0.09400
C 	C 	0.17527 0.07130 0.93877 -0.09100
C 	C 	0.14478 0.05765 0.98586 0.01800
C 	C 	0.20806 0.08016 0.03110 0.00200
C 	C 	0.17631 0.06509 0.08205 -0.15900
H 	H 	0.35057 0.13565 0.06330 0.04100
H 	H 	0.12610 0.05292 0.90403 0.05000
C 	C 	0.29866 0.11803 0.88465 -0.19900
H 	H 	0.23572 0.09271 0.11436 0.05500
H 	H 	0.12588 0.99486 0.08125 0.05000
H 	H 	0.14224 0.09586 0.08986 0.05300
H 	H 	0.34312 0.09706 0.88048 0.06100
H 	H 	0.33859 0.18687 0.88138 0.07200
H 	H 	0.23784 0.07911 0.85231 0.06400
