data_crystal

_cell_length_a 25.71835
_cell_length_b 26.06432
_cell_length_c 30.71694
_cell_angle_alpha 60.99839
_cell_angle_beta  118.70685
_cell_angle_gamma 133.16947

_symmetry_space_group_name_	'P 1'
_symmetry_space_group_name_H-M	'P 1'

loop_
_symmetry_equiv_pos_as_xyz
  x,y,z

loop_
_atom_site_label
_atom_site_type_symbol
_atom_site_fract_x
_atom_site_fract_y
_atom_site_fract_z
_atom_site_charge
C 	C 	0.71958 0.30376 0.04546 0.03400
C 	C 	0.64875 0.25540 0.05482 -0.07600
C 	C 	0.62243 0.28049 0.06477 0.04800
C 	C 	0.66654 0.35259 0.06633 -0.07900
C 	C 	0.73643 0.40099 0.05708 0.03500
C 	C 	0.76301 0.37714 0.04603 -0.07600
H 	H 	0.61500 0.19880 0.05494 0.05700
H 	H 	0.64610 0.37152 0.07438 0.05700
H 	H 	0.81696 0.41513 0.03814 0.05000
C 	C 	0.71806 0.27297 0.54646 0.05000
C 	C 	0.64527 0.22788 0.55099 -0.08300
C 	C 	0.61925 0.25568 0.55802 0.05300
C 	C 	0.66503 0.32791 0.55989 -0.08500
C 	C 	0.73761 0.37265 0.55665 0.05100
C 	C 	0.76462 0.34556 0.54978 -0.08400
H 	H 	0.60954 0.17169 0.54941 0.06100
H 	H 	0.64448 0.34905 0.56523 0.06000
H 	H 	0.82117 0.38020 0.54744 0.05500
C 	C 	0.28607 0.68823 0.22179 0.04800
C 	C 	0.35814 0.73172 0.21611 -0.08300
C 	C 	0.38143 0.70181 0.20827 0.05000
C 	C 	0.33346 0.62933 0.20636 -0.08400
C 	C 	0.26219 0.58579 0.21190 0.05100
C 	C 	0.23799 0.61494 0.21959 -0.08200
H 	H 	0.39545 0.78808 0.21766 0.05400
H 	H 	0.35179 0.60655 0.20040 0.05900
H 	H 	0.18239 0.58124 0.22357 0.05900
C 	C 	0.28942 0.64672 0.74404 0.03300
C 	C 	0.36125 0.69696 0.73592 -0.07500
C 	C 	0.39240 0.67346 0.72966 0.03500
C 	C 	0.35216 0.60071 0.73114 -0.07800
C 	C 	0.28068 0.55100 0.73765 0.04700
C 	C 	0.24918 0.57333 0.74478 -0.07600
H 	H 	0.39208 0.75374 0.73387 0.05000
H 	H 	0.37622 0.58303 0.72590 0.05800
H 	H 	0.19397 0.53424 0.75065 0.05700
Co	Co	0.09159 0.99136 0.15374 1.17200
Co	Co	0.89430 0.97923 0.11267 1.16600
Co	Co	0.03338 0.04255 0.19040 1.19600
Co	Co	0.95929 0.94397 0.06850 1.17200
C 	C 	0.09920 0.86291 0.18987 0.29200
Co	Co	0.07521 0.92253 0.07881 1.17000
Co	Co	0.90448 0.03692 0.19160 1.17900
C 	C 	0.02517 0.99672 0.98009 0.32300
O 	O 	0.97655 0.14478 0.16045 -0.40400
O 	O 	0.94783 0.01989 0.16156 -0.75400
C 	C 	0.04851 0.17948 0.17656 0.31000
O 	O 	0.11785 0.04068 0.20350 -0.44500
O 	O 	0.87275 0.94108 0.05753 -0.47700
C 	C 	0.83488 0.06120 0.08193 0.32100
O 	O 	0.00521 0.01153 0.12077 -0.55200
C 	C 	0.99825 0.00324 0.28616 0.37200
C 	C 	0.21625 0.05503 0.11376 0.33900
C 	C 	0.91600 0.80786 0.06427 0.32700
O 	O 	0.08189 0.15045 0.18650 -0.37200
O 	O 	0.18390 0.98810 0.11519 -0.43300
O 	O 	0.18664 0.07079 0.12608 -0.37700
O 	O 	0.82063 0.02474 0.12700 -0.40200
O 	O 	0.87000 0.05460 0.06701 -0.37500
O 	O 	0.98272 0.04995 0.25991 -0.41500
O 	O 	0.00994 0.98167 0.26277 -0.39700
O 	O 	0.96992 0.85231 0.04151 -0.42300
O 	O 	0.90584 0.83272 0.08579 -0.40300
O 	O 	0.04186 0.95897 0.10071 -0.75600
C 	C 	0.79013 0.88510 0.18533 0.29200
O 	O 	0.83954 0.92607 0.21827 -0.37900
O 	O 	0.80916 0.88657 0.15088 -0.38500
O 	O 	0.05838 0.84432 0.14619 -0.38700
O 	O 	0.09880 0.90402 0.20377 -0.38400
O 	O 	0.08499 0.00410 0.01364 -0.34200
O 	O 	0.97502 0.98569 0.99357 -0.39300
Co	Co	0.10453 0.96638 0.66577 1.17800
Co	Co	0.90855 0.96186 0.62136 1.17000
Co	Co	0.04168 0.00908 0.70632 1.19500
Co	Co	0.96617 0.90614 0.58800 1.17500
C 	C 	0.15397 0.87514 0.70169 0.31800
Co	Co	0.09280 0.90261 0.59165 1.16900
Co	Co	0.92611 0.03461 0.69285 1.17900
C 	C 	0.99748 0.93114 0.49364 0.33800
O 	O 	0.02934 0.10279 0.73340 -0.39000
O 	O 	0.96300 0.00214 0.67060 -0.74500
C 	C 	0.08763 0.14575 0.71540 0.30500
O 	O 	0.12375 0.00259 0.72127 -0.44400
O 	O 	0.88045 0.90587 0.57586 -0.47100
C 	C 	0.90120 0.09250 0.58134 0.29200
O 	O 	0.01461 0.98050 0.63578 -0.58300
C 	C 	0.96991 0.95394 0.79094 0.32100
C 	C 	0.21365 0.05489 0.59677 0.29100
C 	C 	0.94716 0.76636 0.60817 0.26700
O 	O 	0.10403 0.11962 0.70029 -0.37700
O 	O 	0.16140 0.01292 0.56447 -0.34200
O 	O 	0.20058 0.04917 0.63694 -0.35400
O 	O 	0.94483 0.11143 0.62486 -0.39600
O 	O 	0.88723 0.03980 0.57000 -0.35900
O 	O 	0.91240 0.95223 0.75812 -0.38400
O 	O 	0.01102 0.95234 0.77731 -0.37700
O 	O 	0.01810 0.79631 0.62354 -0.36900
O 	O 	0.91991 0.79476 0.60922 -0.38600
O 	O 	0.05313 0.93166 0.61436 -0.75600
C 	C 	0.78766 0.89950 0.66286 0.32500
O 	O 	0.81834 0.96765 0.65614 -0.42700
O 	O 	0.82073 0.88144 0.65713 -0.39600
O 	O 	0.17306 0.91283 0.65827 -0.42400
O 	O 	0.11284 0.87985 0.71160 -0.39200
O 	O 	0.01540 0.88651 0.52293 -0.39600
O 	O 	0.97810 0.95063 0.51260 -0.38900
C 	C 	0.94180 0.92868 0.91154 -0.12800
C 	C 	0.00885 0.98950 0.92907 -0.11500
C 	C 	0.06573 0.03412 0.90368 0.33400
C 	C 	0.05549 0.01782 0.86156 -0.03000
C 	C 	0.98806 0.95763 0.84356 -0.18800
C 	C 	0.93161 0.91242 0.86944 0.35300
F 	F 	0.86616 0.85352 0.85305 -0.45000
H 	H 	0.89822 0.89257 0.93147 0.09900
H 	H 	0.09895 0.05401 0.84151 0.07800
F 	F 	0.13103 0.09330 0.91984 -0.44400
C 	C 	0.93837 0.90087 0.40950 -0.07200
C 	C 	0.99268 0.95348 0.43825 -0.19000
C 	C 	0.05379 0.01833 0.41875 0.38600
C 	C 	0.06058 0.03012 0.37146 -0.07400
C 	C 	0.00540 0.97839 0.34206 -0.14200
C 	C 	0.94488 0.91295 0.36197 0.30500
F 	F 	0.89052 0.86240 0.33419 -0.45200
H 	H 	0.89217 0.84950 0.42478 0.07700
H 	H 	0.10699 0.08140 0.35634 0.08700
F 	F 	0.10801 0.06902 0.44644 -0.44900
C 	C 	0.18614 0.35171 0.72663 0.04200
C 	C 	0.15379 0.33741 0.67824 -0.06500
C 	C 	0.13006 0.27306 0.67335 0.01900
C 	C 	0.23979 0.47770 0.73494 -0.01900
C 	C 	0.17529 0.23940 0.76471 0.02500
C 	C 	0.19900 0.30369 0.76959 -0.06200
C 	C 	0.21283 0.41916 0.73145 -0.01400
C 	C 	0.13781 0.22221 0.71690 -0.08500
H 	H 	0.14585 0.37541 0.64452 0.05300
H 	H 	0.10114 0.26049 0.63623 0.03900
H 	H 	0.18168 0.20068 0.79865 0.04800
H 	H 	0.22623 0.31548 0.80690 0.06200
C 	C 	0.59130 0.77720 0.69638 -0.00400
C 	C 	0.58707 0.75149 0.74745 -0.03200
C 	C 	0.52499 0.72571 0.75889 -0.03600
C 	C 	0.71673 0.84616 0.67478 -0.10300
C 	C 	0.47268 0.75475 0.66839 -0.03800
C 	C 	0.53471 0.78043 0.65697 -0.03400
C 	C 	0.65861 0.81113 0.68479 0.05200
C 	C 	0.46620 0.72476 0.71934 -0.00200
H 	H 	0.63165 0.75119 0.77831 0.05500
H 	H 	0.52074 0.70256 0.79837 0.04500
H 	H 	0.42774 0.75419 0.63746 0.04000
H 	H 	0.53857 0.80265 0.61745 0.03900
C 	C 	0.19606 0.72821 0.75433 -0.00400
C 	C 	0.26433 0.74312 0.78616 -0.03300
C 	C 	0.29365 0.71459 0.78418 -0.03800
C 	C 	0.16274 0.81716 0.73014 -0.10600
C 	C 	0.18546 0.65378 0.71981 -0.03700
C 	C 	0.15584 0.68148 0.72240 -0.03200
C 	C 	0.17620 0.77405 0.74478 0.04700
C 	C 	0.25536 0.67147 0.74983 0.00100
H 	H 	0.29624 0.77935 0.81080 0.04000
H 	H 	0.34680 0.72745 0.80846 0.04100
H 	H 	0.15505 0.62061 0.69320 0.04300
H 	H 	0.10334 0.66985 0.69736 0.04500
C 	C 	0.14802 0.38257 0.19719 0.04100
C 	C 	0.16910 0.33745 0.23512 -0.06500
C 	C 	0.14169 0.27364 0.22669 0.02100
C 	C 	0.21446 0.51158 0.20834 -0.02100
C 	C 	0.07449 0.30146 0.14159 0.02200
C 	C 	0.10161 0.36492 0.15014 -0.06700
C 	C 	0.18170 0.45166 0.20395 -0.01400
C 	C 	0.09298 0.25451 0.18024 -0.08500
H 	H 	0.20648 0.35160 0.27116 0.05700
H 	H 	0.15579 0.23764 0.25705 0.04100
H 	H 	0.03685 0.28735 0.10558 0.04100
H 	H 	0.08651 0.40034 0.12012 0.05400
C 	C 	0.58230 0.79631 0.19429 0.03500
C 	C 	0.62764 0.77905 0.23710 -0.06400
C 	C 	0.69205 0.80022 0.23273 0.01500
C 	C 	0.45493 0.74389 0.20301 -0.02500
C 	C 	0.66412 0.85238 0.14196 0.01300
C 	C 	0.59949 0.83103 0.14636 -0.06700
C 	C 	0.51396 0.77083 0.19864 -0.01700
C 	C 	0.71237 0.83982 0.18559 -0.08100
H 	H 	0.61346 0.74989 0.27394 0.05300
H 	H 	0.72836 0.78955 0.26664 0.06000
H 	H 	0.67887 0.88267 0.10529 0.03000
H 	H 	0.56345 0.84235 0.11267 0.04700
C 	C 	0.21067 0.77447 0.23821 0.03700
C 	C 	0.25093 0.84972 0.22972 -0.06700
C 	C 	0.21777 0.87948 0.22374 0.01100
C 	C 	0.26081 0.71918 0.22855 -0.02300
C 	C 	0.10668 0.75881 0.23967 0.02000
C 	C 	0.13983 0.72896 0.24593 -0.06600
C 	C 	0.23876 0.74461 0.23354 -0.01700
C 	C 	0.14326 0.83445 0.22409 -0.08500
H 	H 	0.30650 0.88547 0.22515 0.04500
H 	H 	0.24779 0.93787 0.21361 0.02800
H 	H 	0.04985 0.72310 0.24158 0.03900
H 	H 	0.10884 0.67064 0.25398 0.05300
C 	C 	0.79556 0.18792 0.53183 0.03700
C 	C 	0.75321 0.11275 0.53863 -0.06300
C 	C 	0.78522 0.08120 0.54597 0.01500
C 	C 	0.74550 0.24394 0.54019 -0.02200
C 	C 	0.89969 0.20033 0.53459 0.01600
C 	C 	0.86772 0.23190 0.52712 -0.06700
C 	C 	0.76802 0.21871 0.53570 -0.01600
C 	C 	0.86033 0.12440 0.54812 -0.08100
H 	H 	0.69676 0.07832 0.54101 0.05500
H 	H 	0.75349 0.02267 0.55504 0.04800
H 	H 	0.95722 0.23460 0.53486 0.03000
H 	H 	0.90042 0.29021 0.52054 0.04700
C 	C 	0.84630 0.56888 0.58022 0.03600
C 	C 	0.83577 0.62076 0.54074 -0.06500
C 	C 	0.86111 0.68231 0.55109 0.01100
C 	C 	0.78413 0.44500 0.56331 -0.02400
C 	C 	0.90375 0.63824 0.64088 0.01500
C 	C 	0.87862 0.57691 0.63050 -0.06800
C 	C 	0.81522 0.50282 0.57036 -0.01700
C 	C 	0.89759 0.69264 0.60094 -0.07800
H 	H 	0.80863 0.61384 0.50199 0.05400
H 	H 	0.85633 0.72399 0.51985 0.03400
H 	H 	0.93185 0.64553 0.67953 0.03300
H 	H 	0.88483 0.53594 0.66154 0.04800
C 	C 	0.41874 0.15057 0.57790 0.03800
C 	C 	0.36884 0.16258 0.53640 -0.05800
C 	C 	0.30479 0.13833 0.54364 0.01400
C 	C 	0.54616 0.21072 0.56472 -0.02200
C 	C 	0.34188 0.09303 0.63449 0.01500
C 	C 	0.40609 0.11748 0.62719 -0.06100
C 	C 	0.48712 0.18047 0.57081 -0.01100
C 	C 	0.28961 0.10103 0.59243 -0.07100
H 	H 	0.37943 0.19035 0.49844 0.05600
H 	H 	0.26521 0.14537 0.51091 0.06800
H 	H 	0.33088 0.06422 0.67234 0.04600
H 	H 	0.44558 0.11010 0.65977 0.05500
C 	C 	0.79943 0.21267 0.03123 -0.00600
C 	C 	0.73198 0.20058 0.00022 -0.03100
C 	C 	0.70735 0.23295 0.00301 -0.03800
C 	C 	0.82536 0.11848 0.05483 -0.10500
C 	C 	0.81894 0.29223 0.06625 -0.03900
C 	C 	0.84399 0.26094 0.06268 -0.03300
C 	C 	0.81436 0.16321 0.04056 0.04800
C 	C 	0.74953 0.27686 0.03749 0.00200
H 	H 	0.69702 0.16348 0.97576 0.04600
H 	H 	0.65463 0.22214 0.97951 0.04500
H 	H 	0.85233 0.32612 0.09286 0.03800
H 	H 	0.89616 0.27070 0.08685 0.03700
C 	C 	0.81915 0.60262 0.06676 -0.00600
C 	C 	0.83607 0.55751 0.10992 -0.03300
C 	C 	0.81699 0.49506 0.10561 -0.03900
C 	C 	0.87387 0.73171 0.06946 -0.11100
C 	C 	0.76787 0.52483 0.01447 -0.03800
C 	C 	0.78660 0.58699 0.01883 -0.03300
C 	C 	0.84612 0.67105 0.06985 0.05300
C 	C 	0.78039 0.47701 0.05814 -0.00100
H 	H 	0.86372 0.57057 0.14681 0.03900
H 	H 	0.82686 0.45855 0.13965 0.04000
H 	H 	0.73958 0.51150 0.97764 0.04700
H 	H 	0.77576 0.62299 0.98492 0.05300
C 	C 	0.42248 0.16853 0.08917 0.04300
C 	C 	0.41402 0.13992 0.13933 -0.06800
C 	C 	0.34883 0.11097 0.14810 0.02900
C 	C 	0.54980 0.23345 0.07297 -0.01900
C 	C 	0.30215 0.14323 0.05682 0.02400
C 	C 	0.36736 0.17224 0.04805 -0.06200
C 	C 	0.49088 0.20129 0.08027 -0.01400
C 	C 	0.29132 0.10970 0.10673 -0.09300
H 	H 	0.45740 0.13910 0.17148 0.05500
H 	H 	0.34118 0.08526 0.18682 0.03400
H 	H 	0.25818 0.14254 0.02454 0.05900
H 	H 	0.37449 0.19655 0.00924 0.06100
