data_crystal

_cell_length_a 30.77396
_cell_length_b 30.97405
_cell_length_c 26.59176
_cell_angle_alpha 95.51318
_cell_angle_beta  95.50419
_cell_angle_gamma 125.49608

_symmetry_space_group_name_	'P 1'
_symmetry_space_group_name_H-M	'P 1'

loop_
_symmetry_equiv_pos_as_xyz
  x,y,z

loop_
_atom_site_label
_atom_site_type_symbol
_atom_site_fract_x
_atom_site_fract_y
_atom_site_fract_z
_atom_site_charge
N 	N 	0.03250 0.05727 0.99067 -0.14000
C 	C 	0.05524 0.03061 0.98715 0.11700
C 	C 	0.02543 0.00466 0.42834 0.11600
N 	N 	0.99947 0.02807 0.42496 -0.14300
C 	C 	0.08458 0.03698 0.43028 -0.02200
C 	C 	0.10708 0.01382 0.40634 -0.02300
C 	C 	0.16335 0.04335 0.41052 -0.04800
C 	C 	0.19768 0.09632 0.43863 0.01200
C 	C 	0.17528 0.11986 0.46192 -0.04800
C 	C 	0.11896 0.09035 0.45774 -0.02000
C 	C 	0.25708 0.12708 0.44369 0.00800
C 	C 	0.28644 0.17396 0.42262 -0.04200
C 	C 	0.34042 0.13710 0.47182 -0.03000
C 	C 	0.28434 0.10891 0.46856 -0.04200
H 	H 	0.18028 0.02508 0.39194 0.04200
H 	H 	0.20151 0.16076 0.48369 0.04300
H 	H 	0.10217 0.10860 0.47664 0.04100
H 	H 	0.26573 0.18821 0.40322 0.04100
H 	H 	0.26205 0.07288 0.48515 0.04200
C 	C 	0.11329 0.06002 0.98464 -0.01600
C 	C 	0.14475 0.04765 0.01226 -0.02300
C 	C 	0.19846 0.07180 0.00647 -0.05200
C 	C 	0.22129 0.10849 0.97296 0.01800
C 	C 	0.19035 0.12191 0.94623 -0.04900
C 	C 	0.13656 0.09784 0.95211 -0.02000
C 	C 	0.27759 0.13281 0.96597 0.00700
C 	C 	0.31755 0.18869 0.98099 -0.04100
C 	C 	0.29213 0.09977 0.94718 -0.04100
H 	H 	0.22230 0.06182 0.02787 0.04300
H 	H 	0.20771 0.15038 0.92041 0.04300
H 	H 	0.11264 0.10756 0.93045 0.04100
H 	H 	0.26150 0.05663 0.93509 0.04200
C 	C 	0.34250 0.20213 0.42595 -0.03100
H 	H 	0.12745 0.01903 0.03795 0.04100
C 	C 	0.97913 0.02994 0.99382 0.12800
H 	H 	0.59293 0.20839 0.63692 0.13500
C 	C 	0.91706 0.02404 0.41990 -0.02300
C 	C 	0.87567 0.01023 0.44796 -0.02100
C 	C 	0.85235 0.03783 0.44775 -0.04800
C 	C 	0.87009 0.07935 0.41940 0.01200
C 	C 	0.91023 0.09203 0.39010 -0.04800
C 	C 	0.93361 0.06453 0.39032 -0.01900
C 	C 	0.84893 0.11160 0.42274 0.00800
C 	C 	0.81900 0.11088 0.37891 -0.04300
C 	C 	0.79937 0.14185 0.38219 -0.02900
C 	C 	0.80968 0.17379 0.42923 -0.01200
C 	C 	0.83988 0.17482 0.47289 -0.03100
C 	C 	0.85945 0.14387 0.46969 -0.04400
H 	H 	0.82114 0.02755 0.47026 0.04100
H 	H 	0.92408 0.12392 0.36798 0.04300
H 	H 	0.96494 0.07505 0.36791 0.04100
H 	H 	0.81075 0.08616 0.34247 0.04100
H 	H 	0.77588 0.14069 0.34831 0.04000
H 	H 	0.88286 0.14502 0.50363 0.04000
C 	C 	0.36955 0.18362 0.45033 -0.00700
H 	H 	0.36112 0.12264 0.49081 0.04100
C 	C 	0.73649 0.16486 0.00334 0.00600
C 	C 	0.76640 0.14410 0.00818 -0.06500
C 	C 	0.82263 0.17759 0.00935 0.02600
C 	C 	0.85310 0.15439 0.00822 -0.00600
C 	C 	0.87783 0.15574 0.96608 -0.03100
C 	C 	0.90523 0.13228 0.96413 -0.04000
C 	C 	0.90807 0.10727 0.00420 0.01300
C 	C 	0.88390 0.10633 0.04657 -0.04300
C 	C 	0.85650 0.12984 0.04862 -0.03400
C 	C 	0.93396 0.08075 0.00088 -0.00400
C 	C 	0.95501 0.05796 0.99775 -0.03100
H 	H 	0.69284 0.13817 0.00068 0.03400
H 	H 	0.74564 0.10166 0.00937 0.04500
H 	H 	0.92374 0.13307 0.93122 0.04200
H 	H 	0.88592 0.08703 0.07769 0.04300
H 	H 	0.83775 0.12877 0.08139 0.03900
C 	C 	0.38649 0.17783 0.96153 -0.00800
C 	C 	0.34645 0.12224 0.94509 -0.03000
H 	H 	0.35748 0.09630 0.93158 0.04000
C 	C 	0.78728 0.20364 0.43346 0.04700
H 	H 	0.87524 0.17439 0.93461 0.03600
C 	C 	0.44297 0.20033 0.96403 0.04700
H 	H 	0.84791 0.19933 0.50940 0.03300
H 	H 	0.30677 0.21453 0.99554 0.04200
C 	C 	0.76255 0.21925 0.99936 -0.08500
Cu	Cu	0.64851 0.25583 0.00017 0.92700
Cu	Cu	0.69838 0.26030 0.89555 0.87200
C 	C 	0.65684 0.29370 0.10622 0.30600
O 	O 	0.56834 0.22309 0.99427 -0.35600
C 	C 	0.67309 0.30818 0.82318 0.30800
O 	O 	0.64600 0.26330 0.92706 -0.63900
O 	O 	0.68307 0.21770 0.00034 -0.37400
O 	O 	0.74634 0.27479 0.95591 -0.43900
C 	C 	0.54795 0.24606 0.97367 0.30100
O 	O 	0.58042 0.29651 0.96836 -0.39300
O 	O 	0.66223 0.26290 0.07349 -0.35700
C 	C 	0.73030 0.23921 0.98616 0.29000
O 	O 	0.66771 0.26431 0.83202 -0.42100
H 	H 	0.60922 0.24125 0.90543 0.17400
Cu	Cu	0.72737 0.29271 0.53819 0.87100
Cu	Cu	0.64088 0.30346 0.49934 0.89800
O 	O 	0.64117 0.29152 0.42734 -0.64000
O 	O 	0.76532 0.30255 0.43102 -0.37200
O 	O 	0.71138 0.24262 0.47945 -0.44300
O 	O 	0.56250 0.26242 0.48930 -0.37600
C 	C 	0.53230 0.26631 0.45399 0.30800
O 	O 	0.55407 0.30369 0.42517 -0.39400
O 	O 	0.71572 0.31833 0.35696 -0.35500
C 	C 	0.74569 0.25723 0.44785 0.30900
O 	O 	0.63958 0.30370 0.57366 -0.37200
H 	H 	0.61787 0.25306 0.41030 0.16400
C 	C 	0.62533 0.27457 0.73203 -0.05700
C 	C 	0.62678 0.27645 0.67975 0.16200
H 	H 	0.59090 0.23956 0.74321 0.05700
O 	O 	0.58419 0.23439 0.64336 -0.27800
C 	C 	0.66384 0.29169 0.16115 -0.10200
C 	C 	0.67611 0.30377 0.26876 -0.10400
C 	C 	0.62439 0.26767 0.23784 -0.06200
C 	C 	0.61808 0.26176 0.18424 0.17100
H 	H 	0.58881 0.24580 0.25545 0.04900
O 	O 	0.56715 0.22674 0.15444 -0.28200
H 	H 	0.55281 0.24812 0.15122 0.15000
C 	C 	0.76843 0.22839 0.43886 -0.12100
C 	C 	0.42703 0.21195 0.45249 0.04700
C 	C 	0.47513 0.23631 0.45360 -0.10400
H 	H 	0.36482 0.23811 0.40928 0.04000
C 	C 	0.84909 0.23254 0.00810 -0.06600
C 	C 	0.81922 0.25328 0.00313 0.00600
H 	H 	0.89261 0.25890 0.00979 0.04400
H 	H 	0.83997 0.29554 0.00107 0.03000
C 	C 	0.37181 0.21111 0.97875 -0.03000
C 	C 	0.49067 0.22035 0.96757 -0.10800
H 	H 	0.40258 0.25416 0.99143 0.03900
O 	O 	0.63258 0.31515 0.09030 -0.38600
Cu	Cu	0.72559 0.33557 0.43039 0.92800
Cu	Cu	0.62370 0.33457 0.39983 0.89500
C 	C 	0.68080 0.31873 0.32427 0.30500
C 	C 	0.67979 0.31788 0.61096 0.30100
O 	O 	0.72098 0.34169 0.50427 -0.64000
O 	O 	0.65972 0.34368 0.33907 -0.38300
O 	O 	0.72460 0.32543 0.60098 -0.42100
C 	C 	0.66942 0.31626 0.76968 -0.11000
C 	C 	0.67247 0.32064 0.66483 -0.10500
C 	C 	0.71591 0.32482 0.19183 -0.06200
C 	C 	0.72225 0.33092 0.24554 0.17100
Cu	Cu	0.68316 0.34283 0.93464 0.89900
O 	O 	0.69205 0.33991 0.00619 -0.64300
O 	O 	0.68673 0.34721 0.86125 -0.38000
H 	H 	0.75134 0.34765 0.17420 0.05400
H 	H 	0.78682 0.34463 0.28042 0.15500
Cu	Cu	0.64601 0.35451 0.03160 0.89300
H 	H 	0.73020 0.36329 0.02484 0.16400
C 	C 	0.71472 0.36415 0.70256 -0.06200
C 	C 	0.71323 0.36228 0.75484 0.16700
O 	O 	0.77316 0.36636 0.27524 -0.28100
H 	H 	0.74310 0.37899 0.52426 0.17400
C 	C 	0.94499 0.99828 0.42351 0.12000
N 	N 	0.02440 0.97667 0.98652 -0.13900
H 	H 	0.08099 0.97293 0.38452 0.04200
H 	H 	0.86254 0.97914 0.47096 0.04100
N 	N 	0.99680 0.95133 0.43014 -0.14000
C 	C 	0.97113 0.94938 0.98944 0.13300
N 	N 	0.94847 0.97599 0.99315 -0.13900
N 	N 	0.91649 0.94487 0.42564 -0.14100
C 	C 	0.94241 0.92134 0.42875 0.11900
O 	O 	0.72310 0.42051 0.94719 -0.38100
C 	C 	0.71490 0.44877 0.98015 0.29700
O 	O 	0.67809 0.42561 0.00978 -0.39900
O 	O 	0.75692 0.41448 0.43254 -0.35700
C 	C 	0.73378 0.43508 0.45240 0.30100
O 	O 	0.68377 0.40299 0.45982 -0.39200
H 	H 	0.74974 0.39860 0.69139 0.05900
O 	O 	0.75649 0.40363 0.79119 -0.29300
H 	H 	0.74789 0.42951 0.79937 0.15500
C 	C 	0.91180 0.86335 0.43014 -0.02200
C 	C 	0.92342 0.83188 0.40150 -0.01800
C 	C 	0.89958 0.77863 0.40743 -0.04800
C 	C 	0.86396 0.75628 0.44212 0.01400
C 	C 	0.85081 0.78704 0.46948 -0.04800
C 	C 	0.87457 0.84037 0.46343 -0.01900
C 	C 	0.84121 0.70100 0.45030 0.00800
C 	C 	0.78507 0.66027 0.43676 -0.04200
C 	C 	0.76404 0.60699 0.44049 -0.03000
C 	C 	0.79899 0.59409 0.45775 -0.00800
C 	C 	0.85490 0.63492 0.47258 -0.03000
C 	C 	0.87597 0.68825 0.46898 -0.04200
C 	C 	0.77770 0.53856 0.45743 0.04700
C 	C 	0.75861 0.49160 0.45590 -0.10800
H 	H 	0.95156 0.84897 0.37520 0.03900
H 	H 	0.90927 0.75491 0.38551 0.04300
H 	H 	0.82307 0.77001 0.49611 0.04300
H 	H 	0.86535 0.86427 0.48579 0.03900
H 	H 	0.75791 0.66968 0.42231 0.04100
H 	H 	0.72074 0.57561 0.42905 0.03900
H 	H 	0.88213 0.62528 0.48610 0.04000
H 	H 	0.91934 0.71950 0.47990 0.04200
C 	C 	0.74344 0.50689 0.98006 -0.08900
C 	C 	0.71875 0.53198 0.99258 0.02000
C 	C 	0.74612 0.58719 0.99335 -0.06200
C 	C 	0.79836 0.61788 0.98157 0.02600
C 	C 	0.82294 0.59289 0.96865 -0.06500
C 	C 	0.79562 0.53763 0.96788 0.01600
C 	C 	0.82764 0.67634 0.98352 0.00400
C 	C 	0.87555 0.71326 0.01979 -0.03900
C 	C 	0.90322 0.76871 0.02177 -0.04600
C 	C 	0.88317 0.78759 0.98757 0.01900
C 	C 	0.83517 0.75082 0.95151 -0.04200
C 	C 	0.80744 0.69533 0.94948 -0.03500
C 	C 	0.91302 0.84461 0.98823 0.00500
C 	C 	0.93895 0.89243 0.98880 -0.03800
H 	H 	0.67828 0.50869 0.00149 0.03000
H 	H 	0.72686 0.60619 0.00339 0.04300
H 	H 	0.86324 0.61629 0.95936 0.04800
H 	H 	0.81525 0.51890 0.95838 0.03400
H 	H 	0.89125 0.69898 0.04643 0.03900
H 	H 	0.94038 0.79695 0.04969 0.04300
H 	H 	0.81955 0.76516 0.92485 0.04400
H 	H 	0.77048 0.66712 0.92134 0.04100
