data_crystal

_cell_length_a 15.10266
_cell_length_b 15.77355
_cell_length_c 53.69021
_cell_angle_alpha 90.20196
_cell_angle_beta  90.21271
_cell_angle_gamma 119.38129

_symmetry_space_group_name_	'P 1'
_symmetry_space_group_name_H-M	'P 1'

loop_
_symmetry_equiv_pos_as_xyz
  x,y,z

loop_
_atom_site_label
_atom_site_type_symbol
_atom_site_fract_x
_atom_site_fract_y
_atom_site_fract_z
_atom_site_charge
C 	C 	0.24100 0.77433 0.09362 0.31100
C 	C 	0.24583 0.49301 0.16712 0.30500
C 	C 	0.24432 0.77087 0.16524 0.30600
C 	C 	0.22731 0.47469 0.09623 0.31000
C 	C 	0.52385 0.74923 0.09273 0.31500
Ni	Ni	0.19237 0.60620 0.13031 1.11900
Ni	Ni	0.40552 0.60330 0.13060 1.12300
Ni	Ni	0.40792 0.80621 0.12844 1.12400
O 	O 	0.17564 0.71274 0.11025 -0.35000
O 	O 	0.34088 0.81809 0.09717 -0.37800
O 	O 	0.52996 0.70532 0.14919 -0.37100
O 	O 	0.17725 0.48720 0.15089 -0.35200
O 	O 	0.34190 0.55686 0.16428 -0.37800
O 	O 	0.20666 0.67676 0.16361 -0.36800
O 	O 	0.30337 0.82823 0.14744 -0.36600
O 	O 	0.48236 0.65606 0.09893 -0.37900
O 	O 	0.17600 0.52217 0.09930 -0.35700
O 	O 	0.29469 0.47912 0.11318 -0.36500
O 	O 	0.46807 0.80522 0.16145 -0.38400
O 	O 	0.33196 0.66967 0.12407 -0.72200
H 	H 	0.33046 0.66655 0.10574 0.15900
C 	C 	0.13608 0.93987 0.24784 0.28900
C 	C 	0.10978 0.21634 0.24819 0.28200
Ni	Ni	0.16509 0.09632 0.28399 1.11700
O 	O 	0.18885 0.03462 0.25253 -0.36300
O 	O 	0.07130 0.87790 0.26459 -0.35100
O 	O 	0.04504 0.20356 0.30189 -0.35500
O 	O 	0.18688 0.99285 0.30318 -0.35400
O 	O 	0.17528 0.21768 0.26521 -0.35400
O 	O 	0.00983 0.16637 0.25167 -0.35300
O 	O 	0.02575 0.02505 0.27663 -0.71300
H 	H 	0.02725 0.02536 0.25827 0.16500
C 	C 	0.21575 0.42182 0.18776 -0.06200
C 	C 	0.25555 0.45268 0.21207 0.01000
C 	C 	0.22425 0.38492 0.23168 0.00200
C 	C 	0.14881 0.28701 0.22735 -0.04400
C 	C 	0.10911 0.25725 0.20301 -0.00800
C 	C 	0.15102 0.32209 0.18301 0.01300
C 	C 	0.33017 0.55342 0.21692 0.10600
C 	C 	0.02476 0.16047 0.19846 0.13100
C 	C 	0.14063 0.28416 0.15793 0.10000
C 	C 	0.26978 0.41646 0.25620 0.10800
N 	N 	0.13326 0.25345 0.13798 -0.10300
N 	N 	0.30682 0.44197 0.27567 -0.10000
N 	N 	0.38979 0.63360 0.22097 -0.10100
N 	N 	0.42723 0.86651 0.21219 -0.10400
C 	C 	0.21054 0.81166 0.18601 -0.05600
C 	C 	0.18871 0.76730 0.20982 0.00900
C 	C 	0.18018 0.81745 0.23050 0.00700
C 	C 	0.16964 0.90047 0.22694 -0.05000
C 	C 	0.18809 0.94381 0.20311 0.00900
C 	C 	0.20300 0.89674 0.18247 0.00700
C 	C 	0.16399 0.66682 0.21274 0.10900
C 	C 	0.19718 0.03893 0.19996 0.09800
C 	C 	0.19934 0.92989 0.15753 0.10500
C 	C 	0.19205 0.78886 0.25539 0.11000
N 	N 	0.19609 0.95648 0.13766 -0.10200
N 	N 	0.20548 0.11524 0.19734 -0.10700
N 	N 	0.14287 0.58624 0.21521 -0.10000
C 	C 	0.12457 0.39658 0.31511 0.11300
N 	N 	0.09777 0.41923 0.29737 -0.09400
C 	C 	0.09571 0.31600 0.03145 -0.00400
C 	C 	0.20261 0.36754 0.03332 0.13000
C 	C 	0.24919 0.40884 0.05622 -0.04100
C 	C 	0.18934 0.39754 0.07719 -0.10200
C 	C 	0.08443 0.33067 0.07615 0.18800
O 	O 	0.26095 0.38562 0.01240 -0.26500
H 	H 	0.33063 0.45711 0.05706 0.07100
O 	O 	0.02512 0.31549 0.09676 -0.27500
H 	H 	0.27556 0.33092 0.01127 0.16300
C 	C 	0.16718 0.80227 0.02922 -0.10000
C 	C 	0.22159 0.90442 0.02788 0.00500
C 	C 	0.24997 0.95906 0.05016 0.12700
C 	C 	0.23766 0.91213 0.07298 -0.03100
C 	C 	0.20324 0.81182 0.07363 -0.10400
C 	C 	0.16089 0.75583 0.05193 0.19400
C 	C 	0.26899 0.95228 0.00403 0.00900
O 	O 	0.29547 0.05868 0.04957 -0.27200
H 	H 	0.26657 0.95536 0.08981 0.07100
O 	O 	0.11875 0.65649 0.05258 -0.28100
H 	H 	0.13898 0.75922 0.01232 0.07900
H 	H 	0.17522 0.64342 0.04879 0.15900
H 	H 	0.36944 0.08194 0.04847 0.15000
O 	O 	0.44512 0.77299 0.04642 -0.29100
H 	H 	0.46397 0.84209 0.04393 0.16300
C 	C 	0.34024 0.93190 0.99253 0.11600
O 	O 	0.35483 0.85777 0.00108 -0.27500
N 	N 	0.20193 0.76613 0.27523 -0.09600
C 	C 	0.53023 0.77053 0.16480 0.30600
C 	C 	0.53556 0.77225 0.04706 0.19100
O 	O 	0.52868 0.81638 0.10876 -0.37500
C 	C 	0.49736 0.85583 0.21019 0.10600
H 	H 	0.31093 0.80081 0.99042 0.15200
H 	H 	0.52847 0.73509 0.00820 0.08400
C 	C 	0.58464 0.78021 0.06995 -0.11600
C 	C 	0.57200 0.75070 0.02534 -0.10400
C 	C 	0.58603 0.84351 0.20794 0.00700
C 	C 	0.60849 0.81254 0.18513 -0.06100
C 	C 	0.63096 0.74719 0.31152 0.10500
N 	N 	0.60590 0.70780 0.29245 -0.09900
C 	C 	0.68021 0.78564 0.07002 -0.03200
O 	O 	0.52162 0.53305 0.02636 -0.26700
C 	C 	0.65325 0.86858 0.22831 0.00300
C 	C 	0.70618 0.82266 0.18181 0.00500
C 	C 	0.62017 0.88119 0.25273 0.10700
C 	C 	0.73846 0.81007 0.15732 0.09700
N 	N 	0.76460 0.80012 0.13782 -0.10800
N 	N 	0.59349 0.89154 0.27212 -0.10100
C 	C 	0.59660 0.57065 0.00873 0.12600
C 	C 	0.60167 0.50911 0.99072 -0.03600
C 	C 	0.65663 0.73639 0.02654 0.00400
H 	H 	0.54649 0.43219 0.99105 0.07100
H 	H 	0.72123 0.79679 0.08739 0.06900
H 	H 	0.55157 0.51593 0.04064 0.15300
C 	C 	0.71608 0.76293 0.04839 0.11900
C 	C 	0.66575 0.67101 0.00822 0.00800
C 	C 	0.75069 0.87823 0.22511 -0.05100
C 	C 	0.77576 0.85250 0.20192 0.00100
O 	O 	0.80294 0.75580 0.04943 -0.27000
C 	C 	0.82672 0.92742 0.31718 0.31100
C 	C 	0.82653 0.91585 0.24589 0.28500
O 	O 	0.83081 0.86644 0.30095 -0.37700
O 	O 	0.82538 0.98109 0.26175 -0.37000
H 	H 	0.90108 0.11637 0.02139 0.14100
H 	H 	0.85847 0.82095 0.04463 0.14900
C 	C 	0.87274 0.85590 0.19867 0.09800
O 	O 	0.88545 0.02158 0.31466 -0.39300
O 	O 	0.95180 0.13538 0.00787 -0.27000
O 	O 	0.87783 0.86928 0.25091 -0.37700
C 	C 	0.96387 0.22177 0.99891 0.10300
N 	N 	0.94983 0.85819 0.19597 -0.11600
H 	H 	0.95581 0.24920 0.05219 0.05300
N 	N 	0.97954 0.67250 0.30624 -0.13600
Ni	Ni	0.94462 0.08422 0.28201 1.11200
Ni	Ni	0.95718 0.88949 0.28246 1.11300
C 	C 	0.04491 0.31079 0.00741 0.02800
N 	N 	0.95721 0.08343 0.19474 -0.13500
H 	H 	0.00958 0.25066 0.10303 0.16500
O 	O 	0.02316 0.90406 0.31617 -0.36300
C 	C 	0.03797 0.29105 0.05327 -0.08200
C 	C 	0.10272 0.20114 0.32000 0.30800
C 	C 	0.11940 0.93014 0.31862 0.30500
O 	O 	0.14584 0.14697 0.31793 -0.36500
C 	C 	0.03555 0.72210 0.32150 0.12400
C 	C 	0.66204 0.79588 0.33553 0.00700
C 	C 	0.15785 0.36851 0.33743 0.00900
C 	C 	0.74932 0.88927 0.33765 -0.06300
N 	N 	0.46742 0.56701 0.35447 -0.10600
C 	C 	0.13190 0.27029 0.34131 -0.05400
C 	C 	0.24964 0.54115 0.35082 0.10100
N 	N 	0.28074 0.62281 0.34664 -0.10500
C 	C 	0.15153 0.88667 0.33865 -0.05500
C 	C 	0.10572 0.78431 0.34063 0.00000
C 	C 	0.52626 0.64908 0.35544 0.10100
C 	C 	0.21110 0.43877 0.35605 0.00900
C 	C 	0.27356 0.05171 0.35441 0.09300
N 	N 	0.31581 0.13546 0.35231 -0.10400
C 	C 	0.60135 0.75155 0.35657 -0.00100
C 	C 	0.14987 0.24195 0.36489 0.01100
C 	C 	0.22100 0.94674 0.35709 0.01200
C 	C 	0.12996 0.74254 0.36091 0.00900
C 	C 	0.07989 0.63760 0.36341 0.10000
N 	N 	0.03966 0.55385 0.36539 -0.09800
C 	C 	0.76595 0.94267 0.36018 0.01000
C 	C 	0.83447 0.04677 0.36101 0.09400
N 	N 	0.88835 0.13003 0.36178 -0.10900
C 	C 	0.22990 0.41020 0.37949 -0.05200
C 	C 	0.10496 0.13954 0.37096 0.10900
C 	C 	0.20116 0.80301 0.37902 -0.05300
C 	C 	0.24047 0.90476 0.37801 0.00500
C 	C 	0.62009 0.80431 0.37919 -0.05100
C 	C 	0.20663 0.31280 0.38304 0.00600
N 	N 	0.06889 0.05785 0.37581 -0.09900
C 	C 	0.70788 0.89667 0.38139 -0.00000
C 	C 	0.54698 0.76371 0.40029 0.28300
C 	C 	0.25242 0.47634 0.40116 0.28400
C 	C 	0.24277 0.76189 0.39746 0.29200
O 	O 	0.19421 0.51702 0.40439 -0.36000
O 	O 	0.34277 0.80729 0.40079 -0.37600
O 	O 	0.51104 0.67079 0.40610 -0.35900
C 	C 	0.24777 0.28669 0.40423 0.10000
C 	C 	0.29655 0.96561 0.39908 0.10200
H 	H 	0.34975 0.66491 0.41018 0.16500
C 	C 	0.74378 0.94086 0.40574 0.10200
O 	O 	0.17892 0.69411 0.41329 -0.36800
O 	O 	0.53817 0.82525 0.41600 -0.36400
O 	O 	0.31761 0.48092 0.41875 -0.35800
N 	N 	0.28106 0.26554 0.42102 -0.10900
N 	N 	0.34120 0.01420 0.41588 -0.10800
O 	O 	0.34821 0.66874 0.42849 -0.71700
Ni	Ni	0.42457 0.60858 0.43748 1.11600
Ni	Ni	0.40756 0.80530 0.43316 1.12300
Ni	Ni	0.20587 0.60010 0.43413 1.12400
N 	N 	0.77254 0.97613 0.42515 -0.10300
O 	O 	0.29863 0.82310 0.45085 -0.36700
O 	O 	0.19340 0.48593 0.45465 -0.36200
H 	H 	0.15501 0.28724 0.45275 0.16700
O 	O 	0.54867 0.72049 0.45644 -0.35500
C 	C 	0.23065 0.75783 0.46585 0.33500
O 	O 	0.46137 0.79812 0.46704 -0.38600
O 	O 	0.21643 0.66923 0.46606 -0.39400
H 	H 	0.02703 0.64998 0.46124 0.04900
O 	O 	0.10994 0.28988 0.46572 -0.27300
C 	C 	0.54190 0.78805 0.46932 0.32900
C 	C 	0.25636 0.49521 0.47277 0.32600
O 	O 	0.35260 0.56050 0.47136 -0.37800
C 	C 	0.05119 0.70550 0.47561 0.00700
H 	H 	0.59999 0.97846 0.47420 0.05600
C 	C 	0.15397 0.77634 0.47775 -0.13500
C 	C 	0.63041 0.86201 0.48351 -0.12300
C 	C 	0.64504 0.95674 0.48549 -0.01500
C 	C 	0.16852 0.32172 0.48690 0.19700
H 	H 	0.84471 0.64214 0.48306 0.15100
C 	C 	0.18285 0.85249 0.49514 0.21200
O 	O 	0.28099 0.92786 0.49594 -0.28000
C 	C 	0.22355 0.42188 0.49270 -0.11700
O 	O 	0.68560 0.74666 0.49430 -0.28900
C 	C 	0.71213 0.02153 0.50324 0.11000
C 	C 	0.69454 0.83705 0.49700 0.20200
O 	O 	0.88512 0.62094 0.49327 -0.26200
C 	C 	0.98174 0.69895 0.49367 0.07400
C 	C 	0.17354 0.25410 0.50293 -0.11000
H 	H 	0.13724 0.17798 0.49761 0.08400
H 	H 	0.63658 0.70584 0.50723 0.15600
O 	O 	0.71763 0.11032 0.50654 -0.26800
H 	H 	0.31701 0.90731 0.50789 0.16100
H 	H 	0.66495 0.09935 0.51906 0.15700
C 	C 	0.76671 0.90447 0.51371 -0.11100
C 	C 	0.11153 0.84923 0.51239 -0.12700
C 	C 	0.01453 0.76624 0.51360 0.05100
C 	C 	0.26721 0.45101 0.51647 -0.02800
H 	H 	0.30471 0.52728 0.52171 0.06700
H 	H 	0.37450 0.24307 0.50877 0.08000
C 	C 	0.77046 0.99403 0.51829 0.02100
H 	H 	0.81441 0.88430 0.52443 0.07600
H 	H 	0.92257 0.18330 0.52390 0.08500
H 	H 	0.13502 0.90579 0.52646 0.09600
C 	C 	0.35202 0.22281 0.52793 -0.11000
C 	C 	0.23105 0.28591 0.52497 0.00800
C 	C 	0.27240 0.38379 0.53246 0.12100
H 	H 	0.81733 0.71737 0.52353 0.07700
C 	C 	0.26593 0.22387 0.53729 0.00300
C 	C 	0.81696 0.04851 0.54170 -0.00400
C 	C 	0.88170 0.14982 0.54084 -0.09900
C 	C 	0.96037 0.73723 0.53783 -0.03300
H 	H 	0.12616 0.71303 0.55190 0.15700
C 	C 	0.41703 0.20961 0.54416 0.19500
O 	O 	0.50624 0.21801 0.53541 -0.28700
H 	H 	0.55647 0.28842 0.53642 0.15900
H 	H 	0.88611 0.32557 0.54956 0.15800
C 	C 	0.85485 0.70220 0.53869 -0.09000
O 	O 	0.11261 0.76314 0.55937 -0.27600
O 	O 	0.32251 0.41476 0.55486 -0.27200
H 	H 	0.39449 0.43461 0.55127 0.15200
C 	C 	0.88038 0.20874 0.56033 0.19300
O 	O 	0.93320 0.30811 0.55814 -0.28300
C 	C 	0.00893 0.72364 0.55872 0.15700
C 	C 	0.23330 0.18992 0.56156 0.13000
O 	O 	0.71912 0.90638 0.56688 -0.27100
H 	H 	0.76841 0.88641 0.57281 0.15000
C 	C 	0.77423 0.00566 0.56472 0.12100
O 	O 	0.69231 0.59359 0.55643 -0.28800
C 	C 	0.79631 0.63819 0.55764 0.18400
C 	C 	0.39392 0.19438 0.56965 -0.11000
O 	O 	0.14203 0.17747 0.56999 -0.26800
H 	H 	0.15767 0.24040 0.57782 0.16700
C 	C 	0.77705 0.06448 0.58460 -0.03000
H 	H 	0.67406 0.63732 0.56569 0.15600
C 	C 	0.82017 0.16524 0.58140 -0.10900
C 	C 	0.95093 0.66512 0.57834 -0.04900
C 	C 	0.29698 0.17383 0.57762 -0.03200
C 	C 	0.84455 0.61428 0.57663 -0.09900
C 	C 	0.47730 0.23224 0.58790 0.31200
O 	O 	0.53043 0.32822 0.59081 -0.38400
O 	O 	0.67898 0.17958 0.59640 -0.37800
H 	H 	0.73614 0.03087 0.60153 0.06400
C 	C 	0.77931 0.21739 0.59589 0.31000
C 	C 	0.78767 0.52577 0.59167 0.31300
H 	H 	0.98875 0.65242 0.59391 0.06900
H 	H 	0.27587 0.15626 0.59697 0.07100
H 	H 	0.68119 0.32708 0.60134 0.16700
O 	O 	0.83050 0.47082 0.59527 -0.37300
O 	O 	0.48135 0.17087 0.60445 -0.36700
O 	O 	0.70895 0.51577 0.60534 -0.36200
O 	O 	0.84132 0.28924 0.61128 -0.35100
O 	O 	0.67702 0.32832 0.61963 -0.72200
Ni	Ni	0.60404 0.19298 0.62579 1.12400
Ni	Ni	0.59909 0.39206 0.62288 1.12400
Ni	Ni	0.81507 0.39667 0.62797 1.11700
N 	N 	0.86842 0.74334 0.62668 -0.10500
N 	N 	0.01519 0.31172 0.64418 -0.09900
N 	N 	0.48433 0.42821 0.69584 -0.10300
O 	O 	0.47298 0.29127 0.64083 -0.37300
O 	O 	0.70859 0.17926 0.64719 -0.37100
O 	O 	0.82415 0.51913 0.64565 -0.36300
C 	C 	0.84709 0.71920 0.64712 0.09600
C 	C 	0.44095 0.34403 0.69615 0.10100
O 	O 	0.54198 0.20361 0.65754 -0.37900
C 	C 	0.76219 0.24078 0.66505 0.31000
C 	C 	0.96739 0.27540 0.66172 0.08200
C 	C 	0.47377 0.23181 0.65796 0.31000
O 	O 	0.65746 0.44683 0.65680 -0.37500
O 	O 	0.79405 0.33360 0.66262 -0.36800
C 	C 	0.75177 0.51529 0.65996 0.30600
N 	N 	0.92349 0.94396 0.67960 -0.09900
N 	N 	0.14168 0.24752 0.70146 -0.10300
C 	C 	0.80579 0.20899 0.68515 -0.06400
C 	C 	0.90796 0.22989 0.68378 0.01200
C 	C 	0.82054 0.68969 0.67279 0.00500
C 	C 	0.88543 0.86239 0.68473 0.10100
C 	C 	0.05745 0.22866 0.70250 0.10300
C 	C 	0.38578 0.23860 0.69651 0.01200
C 	C 	0.38904 0.18548 0.67578 -0.06100
N 	N 	0.56218 0.13273 0.71014 -0.09400
C 	C 	0.64503 0.14765 0.70860 0.09900
C 	C 	0.74888 0.16621 0.70678 0.00800
C 	C 	0.77576 0.59041 0.67936 -0.06300
C 	C 	0.95196 0.20536 0.70371 0.00300
C 	C 	0.83783 0.76018 0.69123 0.00800
C 	C 	0.32450 0.18941 0.71703 0.01300
C 	C 	0.32071 0.08439 0.67418 0.01300
C 	C 	0.25428 0.08872 0.71534 -0.05600
C 	C 	0.33440 0.24216 0.74000 0.09200
C 	C 	0.31875 0.03053 0.65204 0.08200
N 	N 	0.34245 0.28443 0.75830 -0.11000
C 	C 	0.79287 0.14131 0.72663 0.00900
C 	C 	0.74239 0.56202 0.70402 0.01000
C 	C 	0.89304 0.15697 0.72463 -0.05800
C 	C 	0.80778 0.73127 0.71601 -0.06300
C 	C 	0.25240 0.03629 0.69381 0.00400
N 	N 	0.31706 0.98747 0.63438 -0.10100
C 	C 	0.70704 0.46261 0.71181 0.10500
C 	C 	0.74895 0.63167 0.72145 0.00500
C 	C 	0.92794 0.10648 0.74177 0.31000
C 	C 	0.17182 0.04372 0.73388 0.30600
O 	O 	0.11823 0.08598 0.73871 -0.38000
C 	C 	0.17845 0.93370 0.69155 0.10300
N 	N 	0.67891 0.38331 0.71803 -0.09500
C 	C 	0.73515 0.09944 0.74914 0.09300
O 	O 	0.87726 0.01179 0.74253 -0.37100
C 	C 	0.85779 0.80201 0.73646 0.30800
O 	O 	0.16237 0.97079 0.74770 -0.36300
N 	N 	0.68907 0.06611 0.76710 -0.10500
C 	C 	0.68833 0.60093 0.74385 0.10600
O 	O 	0.80370 0.81123 0.75428 -0.35900
O 	O 	0.99844 0.15609 0.75859 -0.36500
N 	N 	0.11938 0.85188 0.68973 -0.10300
N 	N 	0.63923 0.57627 0.76165 -0.10000
N 	N 	0.91810 0.29387 0.77676 -0.09800
Ni	Ni	0.09028 0.10790 0.77365 1.12500
Ni	Ni	0.03785 0.88752 0.76883 1.12500
N 	N 	0.43303 0.11454 0.76949 -0.09600
O 	O 	0.99392 0.97581 0.77940 -0.72100
Ni	Ni	0.85616 0.93828 0.77555 1.11800
H 	H 	0.45759 0.97606 0.96515 0.06300
O 	O 	0.20657 0.09252 0.78882 -0.36200
C 	C 	0.91666 0.27332 0.79748 0.10500
N 	N 	0.84387 0.56210 0.77776 -0.10300
C 	C 	0.19681 0.01981 0.80347 0.28200
O 	O 	0.13118 0.92742 0.79825 -0.37000
C 	C 	0.40909 0.10117 0.79019 0.10700
O 	O 	0.04868 0.13580 0.80689 -0.36700
H 	H 	0.99924 0.97225 0.79765 0.16700
N 	N 	0.61405 0.35391 0.81841 -0.09700
O 	O 	0.87569 0.05931 0.79701 -0.35000
C 	C 	0.81694 0.58210 0.79590 0.11300
C 	C 	0.95464 0.11683 0.81175 0.28300
C 	C 	0.37922 0.08430 0.81613 0.00400
C 	C 	0.55801 0.13946 0.82846 0.10100
N 	N 	0.64152 0.16424 0.82331 -0.09600
C 	C 	0.66163 0.43257 0.82589 0.10400
N 	N 	0.88201 0.45399 0.83018 -0.10200
C 	C 	0.88664 0.38521 0.83537 0.09900
C 	C 	0.78343 0.60650 0.81876 0.00300
O 	O 	0.83047 0.84764 0.80547 -0.35900
C 	C 	0.91516 0.24864 0.82351 0.00400
C 	C 	0.86420 0.78418 0.80652 0.28300
C 	C 	0.27545 0.03993 0.82266 -0.05000
C 	C 	0.45338 0.10809 0.83493 0.01100
C 	C 	0.89399 0.30002 0.84190 0.01200
C 	C 	0.81766 0.70498 0.82551 -0.04700
C 	C 	0.94104 0.17749 0.83072 -0.04900
C 	C 	0.72068 0.53134 0.83508 0.01300
C 	C 	0.42452 0.09595 0.86011 -0.06700
C 	C 	0.24654 0.00802 0.84735 -0.00300
C 	C 	0.79266 0.72568 0.84948 0.00100
C 	C 	0.96023 0.16931 0.85609 -0.00600
C 	C 	0.32103 0.03918 0.86626 0.00900
C 	C 	0.14168 0.93884 0.85299 0.10300
N 	N 	0.05816 0.88313 0.85751 -0.10500
N 	N 	0.06669 0.08718 0.86898 -0.10600
C 	C 	0.70892 0.55315 0.85979 -0.06500
C 	C 	0.73719 0.64946 0.86637 0.00600
C 	C 	0.88927 0.27374 0.86701 -0.06600
C 	C 	0.82325 0.82489 0.85680 0.10200
C 	C 	0.92979 0.21398 0.87435 0.01000
C 	C 	0.49815 0.15885 0.87916 0.31000
O 	O 	0.52216 0.25044 0.88012 -0.36800
O 	O 	0.72786 0.22645 0.88551 -0.38200
C 	C 	0.68742 0.48017 0.87942 0.30600
O 	O 	0.75138 0.44780 0.88299 -0.37400
C 	C 	0.82436 0.29137 0.88420 0.31100
N 	N 	0.84679 0.90376 0.86273 -0.10600
C 	C 	0.29121 0.01289 0.89195 0.09300
O 	O 	0.52215 0.11954 0.89769 -0.37100
O 	O 	0.60873 0.45316 0.89410 -0.35900
C 	C 	0.70335 0.66944 0.88979 0.09500
O 	O 	0.86579 0.36461 0.90011 -0.37200
N 	N 	0.26690 0.99147 0.91240 -0.10200
C 	C 	0.94191 0.20000 0.90054 0.08800
Ni	Ni	0.54285 0.32226 0.91374 1.11700
N 	N 	0.67563 0.68528 0.90839 -0.10900
Ni	Ni	0.65368 0.19172 0.91786 1.12300
O 	O 	0.65811 0.31289 0.92234 -0.72100
Ni	Ni	0.78814 0.42233 0.91736 1.12400
O 	O 	0.44673 0.19096 0.93244 -0.35500
O 	O 	0.78245 0.22930 0.93840 -0.37400
O 	O 	0.74148 0.51147 0.93408 -0.36000
H 	H 	0.26298 0.14910 0.95605 0.16500
O 	O 	0.56348 0.14783 0.94812 -0.38200
O 	O 	0.57325 0.40964 0.94501 -0.36300
H 	H 	0.65441 0.31427 0.94064 0.16300
C 	C 	0.83423 0.30788 0.95295 0.31100
H 	H 	0.81583 0.71192 0.94321 0.16600
O 	O 	0.82928 0.38897 0.94979 -0.37900
O 	O 	0.31348 0.17164 0.96984 -0.28700
C 	C 	0.47424 0.14544 0.94922 0.31300
O 	O 	0.01947 0.48228 0.96577 -0.25900
C 	C 	0.66521 0.48323 0.95027 0.30300
H 	H 	0.99208 0.51471 0.97670 0.14600
O 	O 	0.83278 0.68155 0.95721 -0.28500
C 	C 	0.39669 0.07473 0.96637 -0.11300
C 	C 	0.32063 0.09142 0.97660 0.19700
C 	C 	0.67529 0.54660 0.97188 -0.10600
H 	H 	0.83183 0.15248 0.97514 0.06300
C 	C 	0.75056 0.64605 0.97276 0.19400
C 	C 	0.89603 0.22114 0.98091 -0.02900
C 	C 	0.90981 0.30892 0.97084 -0.10500
H 	H 	0.12710 0.46625 0.00186 0.08400
C 	C 	0.25599 0.02914 0.99505 -0.11100
H 	H 	0.19970 0.04398 0.00337 0.09000
C 	C 	0.06358 0.39753 0.99582 -0.09200
C 	C 	0.40235 0.99204 0.97362 -0.02800
C 	C 	0.74458 0.70790 0.99076 -0.10800
H 	H 	0.80117 0.78439 0.99110 0.07700
N 	N 	0.95207 0.18867 0.92142 -0.10200
O 	O 	0.91953 0.77648 0.78801 -0.35900
C 	C 	0.99709 0.39709 0.97757 0.16900
C 	C 	0.01907 0.12323 0.86319 0.10700
O 	O 	0.95688 0.85383 0.73687 -0.37500
