data_crystal

_cell_length_a 25.78020
_cell_length_b 26.73610
_cell_length_c 40.04130
_cell_angle_alpha 95.49559
_cell_angle_beta  95.49202
_cell_angle_gamma 125.89540

_symmetry_space_group_name_	'P 1'
_symmetry_space_group_name_H-M	'P 1'

loop_
_symmetry_equiv_pos_as_xyz
  x,y,z

loop_
_atom_site_label
_atom_site_type_symbol
_atom_site_fract_x
_atom_site_fract_y
_atom_site_fract_z
_atom_site_charge
C 	C 	0.99963 0.07160 0.00978 0.11900
C 	C 	0.09562 0.07430 0.01042 0.12300
C 	C 	0.06764 0.10587 0.01455 -0.08500
H 	H 	0.09854 0.15679 0.02092 0.10400
H 	H 	0.98951 0.02724 0.45100 0.10200
Cu	Cu	0.70044 0.32209 0.01454 0.93100
Cu	Cu	0.70917 0.27140 0.93936 0.89200
Cu	Cu	0.69360 0.38418 0.95575 0.91900
Cu	Cu	0.68655 0.43324 0.02575 0.91300
C 	C 	0.71991 0.38469 0.08150 0.29300
O 	O 	0.60873 0.27620 0.02419 -0.34400
C 	C 	0.69326 0.33491 0.89043 0.29300
O 	O 	0.73277 0.41047 0.00327 -0.63400
O 	O 	0.66719 0.30037 0.96451 -0.62700
O 	O 	0.76024 0.29717 0.01715 -0.34500
O 	O 	0.70596 0.22011 0.96957 -0.38900
O 	O 	0.71823 0.43020 0.07256 -0.34900
O 	O 	0.72614 0.46745 0.94852 -0.34800
C 	C 	0.73030 0.50920 0.97134 0.33100
C 	C 	0.57166 0.29315 0.01502 0.32700
O 	O 	0.59515 0.34362 0.00158 -0.36500
O 	O 	0.69467 0.49165 0.99540 -0.35300
O 	O 	0.73858 0.35780 0.06176 -0.34100
C 	C 	0.74676 0.24594 0.99889 0.33400
O 	O 	0.66566 0.35537 0.90694 -0.35800
O 	O 	0.73489 0.32903 0.90768 -0.40000
H 	H 	0.78056 0.44334 0.00777 0.19300
H 	H 	0.61924 0.26869 0.95869 0.18500
Cu	Cu	0.69885 0.29101 0.44868 0.93400
Cu	Cu	0.72421 0.24957 0.52000 0.89100
Cu	Cu	0.60706 0.24579 0.50029 0.90700
Cu	Cu	0.56926 0.28024 0.43694 0.91800
C 	C 	0.64411 0.28723 0.38191 0.30800
O 	O 	0.73443 0.38228 0.45048 -0.33800
C 	C 	0.67046 0.27439 0.57193 0.30900
O 	O 	0.59948 0.23551 0.45190 -0.63600
O 	O 	0.70268 0.29870 0.49883 -0.63300
O 	O 	0.74800 0.25519 0.44300 -0.33500
O 	O 	0.69990 0.18967 0.48062 -0.40900
O 	O 	0.59016 0.27645 0.39014 -0.33600
O 	O 	0.51344 0.19114 0.49723 -0.34500
C 	C 	0.47465 0.19991 0.47926 0.32700
C 	C 	0.70413 0.40377 0.46253 0.32800
O 	O 	0.64847 0.36530 0.47195 -0.36100
O 	O 	0.49896 0.24952 0.46462 -0.35000
O 	O 	0.67734 0.27229 0.39989 -0.33600
C 	C 	0.73364 0.20605 0.45600 0.33100
O 	O 	0.61529 0.24254 0.54942 -0.35900
O 	O 	0.72428 0.28674 0.56320 -0.38700
H 	H 	0.57297 0.19103 0.44015 0.19500
H 	H 	0.72665 0.34233 0.51147 0.19500
C 	C 	0.68599 0.32839 0.85289 -0.07700
C 	C 	0.69490 0.28777 0.83399 0.02400
C 	C 	0.68928 0.28233 0.79853 -0.05600
C 	C 	0.67468 0.31740 0.78159 0.03600
C 	C 	0.66539 0.35775 0.80036 -0.05500
C 	C 	0.67092 0.36320 0.83585 0.02800
C 	C 	0.66985 0.31229 0.74423 0.01200
C 	C 	0.71581 0.36397 0.73042 -0.02900
C 	C 	0.71397 0.35779 0.69515 -0.02100
C 	C 	0.66613 0.29999 0.67349 0.00800
C 	C 	0.61925 0.24879 0.68716 -0.02100
C 	C 	0.62106 0.25489 0.72241 -0.02900
C 	C 	0.66743 0.29211 0.63754 0.06500
C 	C 	0.66873 0.28458 0.60753 -0.07600
H 	H 	0.70597 0.26025 0.84674 0.03700
H 	H 	0.69662 0.25112 0.78424 0.06500
H 	H 	0.65400 0.38494 0.78748 0.07000
H 	H 	0.66428 0.39500 0.85008 0.06200
H 	H 	0.75366 0.40848 0.74705 0.06100
H 	H 	0.75036 0.39759 0.68476 0.06200
H 	H 	0.58205 0.20399 0.67056 0.06500
H 	H 	0.58514 0.21484 0.73281 0.06000
C 	C 	0.71718 0.37532 0.11723 -0.06100
C 	C 	0.69564 0.31667 0.12512 0.02500
C 	C 	0.68933 0.30644 0.15858 -0.05000
C 	C 	0.70444 0.35470 0.18448 0.03700
C 	C 	0.72702 0.41363 0.17678 -0.05100
C 	C 	0.73333 0.42392 0.14334 0.02700
C 	C 	0.69455 0.34291 0.21941 0.01400
C 	C 	0.64895 0.34663 0.23364 -0.02600
C 	C 	0.63946 0.33542 0.26670 -0.01900
C 	C 	0.67538 0.32035 0.28576 0.01300
C 	C 	0.72092 0.31656 0.27163 -0.01900
C 	C 	0.73051 0.32781 0.23854 -0.02700
C 	C 	0.66524 0.30857 0.31978 0.06600
C 	C 	0.65601 0.29878 0.34819 -0.06100
H 	H 	0.68253 0.27863 0.10521 0.06000
H 	H 	0.67166 0.26072 0.16427 0.07100
H 	H 	0.73929 0.45132 0.19667 0.07100
H 	H 	0.75068 0.46962 0.13776 0.06200
H 	H 	0.62073 0.35796 0.21903 0.06600
H 	H 	0.60412 0.33836 0.27747 0.07000
H 	H 	0.74888 0.30493 0.28622 0.06700
H 	H 	0.76595 0.32499 0.22783 0.06400
C 	C 	0.72846 0.46920 0.46173 -0.11800
Br	Br	0.60607 0.41328 0.41522 -0.20600
Br	Br	0.84615 0.50453 0.50526 -0.16700
C 	C 	0.82270 0.03404 0.47068 0.07900
C 	C 	0.81630 0.05023 0.43887 0.00900
C 	C 	0.83073 0.02839 0.41039 0.08000
C 	C 	0.79645 0.09196 0.43578 0.02300
C 	C 	0.73005 0.06589 0.42637 0.06400
C 	C 	0.71020 0.10496 0.42936 0.12800
C 	C 	0.75619 0.16947 0.44338 -0.11700
C 	C 	0.82315 0.19631 0.45003 0.12200
C 	C 	0.84329 0.15763 0.44556 0.06500
Br	Br	0.82247 0.05094 0.36692 -0.12000
Br	Br	0.62024 0.07051 0.41406 -0.16000
Br	Br	0.93482 0.19408 0.45388 -0.12700
Br	Br	0.79848 0.06010 0.50904 -0.14500
Br	Br	0.88691 0.28531 0.46722 -0.16900
C 	C 	0.40348 0.15774 0.47837 -0.11000
C 	C 	0.37826 0.13768 0.50825 0.12800
C 	C 	0.31034 0.09829 0.50657 0.06700
C 	C 	0.26847 0.08898 0.47731 0.02300
C 	C 	0.29429 0.11324 0.44847 0.06600
C 	C 	0.36017 0.14125 0.44785 0.12800
C 	C 	0.19724 0.05191 0.47630 0.00800
C 	C 	0.10389 0.04246 0.49311 0.09100
C 	C 	0.17161 0.07787 0.49463 0.08200
Br	Br	0.24020 0.11055 0.41046 -0.11900
Br	Br	0.43552 0.16968 0.55207 -0.14900
Br	Br	0.22865 0.16285 0.52015 -0.12400
Br	Br	0.38943 0.15104 0.40473 -0.17700
Br	Br	0.27469 0.05555 0.54371 -0.12600
Br	Br	0.07017 0.06809 0.52616 -0.13200
Br	Br	0.63771 0.54377 0.94480 -0.14000
C 	C 	0.78763 0.22555 0.00767 -0.12000
C 	C 	0.85517 0.26590 0.00764 0.12500
C 	C 	0.89296 0.24423 0.01291 0.06500
C 	C 	0.86268 0.18100 0.01553 0.02300
C 	C 	0.79563 0.14117 0.01651 0.06400
C 	C 	0.75851 0.16400 0.01347 0.12700
C 	C 	0.90007 0.15514 0.01425 0.00800
C 	C 	0.90750 0.13492 0.98246 0.08100
C 	C 	0.94377 0.11126 0.98118 0.09300
C 	C 	0.96968 0.10457 0.01155 -0.05200
C 	C 	0.96259 0.12506 0.04336 0.09300
C 	C 	0.92891 0.15152 0.04474 0.08100
Br	Br	0.75443 0.05488 0.02088 -0.12600
Br	Br	0.89498 0.34901 0.99759 -0.18200
Br	Br	0.92224 0.18295 0.08828 -0.12400
Br	Br	0.66807 0.11144 0.01773 -0.14800
Br	Br	0.98613 0.30066 0.01584 -0.12600
Br	Br	0.99754 0.11523 0.08490 -0.13000
C 	C 	0.16709 0.11004 0.01485 -0.05200
C 	C 	0.19958 0.14021 0.98870 0.09400
C 	C 	0.26699 0.17065 0.99197 0.08100
C 	C 	0.30112 0.16728 0.02024 0.00800
C 	C 	0.26847 0.13650 0.04620 0.08100
C 	C 	0.20211 0.11009 0.04413 0.09300
C 	C 	0.37134 0.19619 0.02264 0.02400
C 	C 	0.39083 0.16384 0.00452 0.06400
C 	C 	0.45705 0.19472 0.00279 0.12900
C 	C 	0.50408 0.25678 0.02079 -0.11800
C 	C 	0.48512 0.28626 0.04200 0.12800
C 	C 	0.41866 0.25719 0.04176 0.06500
Br	Br	0.31437 0.12924 0.08408 -0.12700
Br	Br	0.15115 0.13738 0.94776 -0.12900
Br	Br	0.48284 0.15303 0.97471 -0.17600
Br	Br	0.39218 0.30176 0.06647 -0.12500
Br	Br	0.15932 0.07514 0.08163 -0.12600
Br	Br	0.31285 0.21728 0.95787 -0.13000
Br	Br	0.32660 0.07757 0.98180 -0.12500
Br	Br	0.55047 0.36525 0.07238 -0.20100
Br	Br	0.86681 0.13861 0.94069 -0.14100
Br	Br	0.95862 0.08841 0.93788 -0.13000
C 	C 	0.68731 0.48107 0.44459 0.12900
C 	C 	0.70729 0.54298 0.44720 0.06500
C 	C 	0.77139 0.59372 0.46306 0.02300
C 	C 	0.81401 0.58217 0.47850 0.06500
C 	C 	0.79163 0.51997 0.47913 0.12900
C 	C 	0.79484 0.65908 0.46203 0.00900
C 	C 	0.81379 0.68393 0.43224 0.08000
C 	C 	0.82237 0.75902 0.49006 0.09300
C 	C 	0.79662 0.69589 0.49047 0.08000
Br	Br	0.90320 0.65152 0.49820 -0.12900
Br	Br	0.76377 0.65971 0.52979 -0.12800
Br	Br	0.64666 0.55844 0.42938 -0.12300
Br	Br	0.81381 0.63474 0.39371 -0.13100
Br	Br	0.83023 0.81130 0.52988 -0.13200
C 	C 	0.89024 0.80734 0.94881 0.08100
C 	C 	0.87030 0.77320 0.97553 0.00900
C 	C 	0.88675 0.80496 0.00938 0.07900
C 	C 	0.83430 0.70421 0.96835 0.02300
C 	C 	0.76566 0.66438 0.96053 0.06500
C 	C 	0.73133 0.59925 0.95864 0.12900
C 	C 	0.76558 0.57442 0.96608 -0.11400
C 	C 	0.83419 0.61362 0.97138 0.12400
C 	C 	0.86851 0.67841 0.97201 0.06600
Br	Br	0.85652 0.75783 0.04569 -0.13200
Br	Br	0.96245 0.73236 0.97885 -0.12800
Br	Br	0.86749 0.76368 0.90249 -0.12600
Br	Br	0.71892 0.69949 0.95366 -0.12200
Br	Br	0.88113 0.57897 0.97940 -0.18200
C 	C 	0.83446 0.74529 0.43099 0.09400
C 	C 	0.84314 0.78426 0.46060 -0.05200
Br	Br	0.84902 0.77557 0.38853 -0.12600
C 	C 	0.92734 0.87324 0.95602 0.09300
C 	C 	0.92533 0.87091 0.01669 0.09300
C 	C 	0.94586 0.90507 0.99003 -0.05300
C 	C 	0.88287 0.85289 0.46229 0.12200
H 	H 	0.80058 0.85408 0.44839 0.10400
H 	H 	0.97376 0.86746 0.47828 0.10000
Br	Br	0.95267 0.92014 0.91941 -0.13100
Br	Br	0.95140 0.91480 0.06328 -0.12800
C 	C 	0.85326 0.88129 0.45325 -0.08800
C 	C 	0.95097 0.88893 0.47009 -0.09000
Br	Br	0.03255 0.89589 0.40957 -0.12500
C 	C 	0.05552 0.00852 0.00184 -0.09000
C 	C 	0.95982 0.00580 0.00175 -0.09400
C 	C 	0.84694 0.99911 0.47449 0.09500
C 	C 	0.15455 0.99226 0.45505 0.08200
C 	C 	0.85216 0.99098 0.41386 0.09400
C 	C 	0.06128 0.98632 0.46872 -0.04500
Br	Br	0.86207 0.98259 0.51887 -0.13000
C 	C 	0.95988 0.97900 0.45484 -0.08700
C 	C 	0.86194 0.97773 0.44611 -0.05100
Br	Br	0.66619 0.97642 0.41093 -0.12200
C 	C 	0.08732 0.96297 0.44852 0.09100
Br	Br	0.18810 0.95032 0.43547 -0.12300
Br	Br	0.86759 0.95733 0.37450 -0.13000
C 	C 	0.98965 0.95116 0.46490 0.11700
C 	C 	0.89196 0.94510 0.45072 0.12100
C 	C 	0.98772 0.97427 0.99782 0.12400
H 	H 	0.90726 0.97925 0.99830 0.10400
H 	H 	0.07705 0.98406 0.99859 0.10400
