data_crystal

_cell_length_a 20.47682
_cell_length_b 30.10802
_cell_length_c 28.66052
_cell_angle_alpha 90.01045
_cell_angle_beta  90.00049
_cell_angle_gamma 89.98980

_symmetry_space_group_name_	'P 1'
_symmetry_space_group_name_H-M	'P 1'

loop_
_symmetry_equiv_pos_as_xyz
  x,y,z

loop_
_atom_site_label
_atom_site_type_symbol
_atom_site_fract_x
_atom_site_fract_y
_atom_site_fract_z
_atom_site_charge
Cu	Cu	0.07190 0.85946 0.09032 0.93500
Cu	Cu	0.00000 0.84772 0.19107 0.88200
Cu	Cu	0.93241 0.82738 0.10293 0.89200
Cu	Cu	0.99412 0.81328 0.00872 0.88400
C 	C 	0.13884 0.81656 0.01477 0.28800
O 	O 	0.05038 0.90817 0.04446 -0.34500
C 	C 	0.86022 0.85644 0.18613 0.29600
O 	O 	0.01073 0.80565 0.07322 -0.62800
O 	O 	0.99409 0.87236 0.12839 -0.65600
O 	O 	0.13677 0.86361 0.14125 -0.36700
O 	O 	0.08002 0.81586 0.18707 -0.43100
O 	O 	0.08663 0.82256 0.98853 -0.36100
O 	O 	0.87581 0.78077 0.07967 -0.38700
C 	C 	0.86938 0.76977 0.03532 0.31600
C 	C 	0.99135 0.91330 0.02724 0.28300
O 	O 	0.95271 0.87878 0.02194 -0.38900
O 	O 	0.91980 0.77072 0.00652 -0.40100
O 	O 	0.14381 0.83568 0.05599 -0.35600
C 	C 	0.13429 0.83703 0.17738 0.31400
O 	O 	0.85849 0.84708 0.14100 -0.37600
O 	O 	0.91471 0.86949 0.20658 -0.40500
H 	H 	0.02406 0.77538 0.08280 0.16600
H 	H 	0.97739 0.90319 0.12702 0.18600
Cu	Cu	0.41367 0.86298 0.39191 0.93000
Cu	Cu	0.48301 0.85170 0.29009 0.87100
Cu	Cu	0.55288 0.83026 0.37851 0.89800
Cu	Cu	0.49238 0.81716 0.47342 0.89800
C 	C 	0.34780 0.81984 0.46770 0.30400
O 	O 	0.43572 0.91212 0.43711 -0.36300
C 	C 	0.62264 0.85646 0.29367 0.30100
O 	O 	0.47491 0.80914 0.40910 -0.63800
O 	O 	0.49105 0.87536 0.35318 -0.64300
O 	O 	0.34813 0.86659 0.34138 -0.37100
O 	O 	0.40416 0.81868 0.29536 -0.43300
O 	O 	0.39997 0.82610 0.49392 -0.36900
O 	O 	0.60931 0.78355 0.40171 -0.38100
C 	C 	0.61663 0.77304 0.44612 0.31100
C 	C 	0.49471 0.91720 0.45439 0.30100
O 	O 	0.53340 0.88268 0.45958 -0.38600
O 	O 	0.56693 0.77470 0.47553 -0.38700
O 	O 	0.34206 0.83986 0.42701 -0.36000
C 	C 	0.34954 0.83903 0.30604 0.31400
O 	O 	0.62608 0.84876 0.33903 -0.37500
O 	O 	0.56888 0.87215 0.27449 -0.40500
H 	H 	0.46119 0.77885 0.39989 0.16600
H 	H 	0.50790 0.90615 0.35464 0.18300
Cu	Cu	0.07367 0.14222 0.89011 0.93400
Cu	Cu	0.00048 0.15145 0.78943 0.88400
Cu	Cu	0.93437 0.17630 0.87905 0.89400
Cu	Cu	0.99725 0.18580 0.97406 0.89000
C 	C 	0.14142 0.18330 0.96615 0.30300
O 	O 	0.05324 0.09195 0.93450 -0.34100
C 	C 	0.86197 0.14708 0.79517 0.29700
O 	O 	0.01312 0.19566 0.90982 -0.62300
O 	O 	0.99460 0.13033 0.85322 -0.65600
O 	O 	0.13684 0.14159 0.83766 -0.35800
O 	O 	0.07556 0.18831 0.79370 -0.43000
O 	O 	0.09006 0.17579 0.99278 -0.36600
O 	O 	0.87996 0.22299 0.90473 -0.37600
C 	C 	0.87291 0.23136 0.94969 0.30300
C 	C 	0.99452 0.08644 0.95224 0.27600
O 	O 	0.95588 0.12082 0.95855 -0.38600
O 	O 	0.92277 0.22816 0.97882 -0.38600
O 	O 	0.14622 0.16483 0.92458 -0.35500
C 	C 	0.13245 0.17078 0.80385 0.30600
O 	O 	0.85969 0.16137 0.83888 -0.38100
O 	O 	0.91517 0.12860 0.77812 -0.40400
H 	H 	0.02723 0.22612 0.90159 0.17500
H 	H 	0.97724 0.09974 0.85580 0.18500
Cu	Cu	0.41079 0.14480 0.59378 0.93000
Cu	Cu	0.48430 0.15180 0.69466 0.87400
Cu	Cu	0.54974 0.17928 0.60576 0.89700
Cu	Cu	0.48766 0.18969 0.51072 0.89600
C 	C 	0.34363 0.18795 0.51889 0.30700
O 	O 	0.43100 0.09511 0.54860 -0.35900
C 	C 	0.62271 0.14804 0.68870 0.29700
O 	O 	0.47120 0.19863 0.57503 -0.63700
O 	O 	0.49010 0.13233 0.63032 -0.64400
O 	O 	0.34763 0.14376 0.64628 -0.37100
O 	O 	0.40978 0.18919 0.69111 -0.43700
O 	O 	0.39466 0.18088 0.49178 -0.37800
O 	O 	0.60274 0.22733 0.58174 -0.38300
C 	C 	0.61118 0.23620 0.53705 0.30500
C 	C 	0.48963 0.08985 0.53065 0.30100
O 	O 	0.52842 0.12425 0.52510 -0.39000
O 	O 	0.56312 0.23149 0.50655 -0.37800
O 	O 	0.33831 0.16785 0.55955 -0.35500
C 	C 	0.35263 0.17220 0.68076 0.31200
O 	O 	0.62464 0.16434 0.64576 -0.38100
O 	O 	0.56970 0.12875 0.70500 -0.39800
H 	H 	0.45678 0.22894 0.58363 0.16700
H 	H 	0.50785 0.10193 0.62686 0.18600
Cu	Cu	0.91474 0.64174 0.58922 0.92900
Cu	Cu	0.98566 0.64971 0.69102 0.86600
Cu	Cu	0.05329 0.67581 0.60270 0.90300
Cu	Cu	0.99180 0.68970 0.50838 0.88900
C 	C 	0.84724 0.68510 0.51430 0.30700
O 	O 	0.93744 0.59397 0.54252 -0.35300
C 	C 	0.12512 0.64718 0.68588 0.30100
O 	O 	0.97457 0.69654 0.57293 -0.64600
O 	O 	0.99308 0.62904 0.62685 -0.66300
O 	O 	0.84975 0.63624 0.64011 -0.36900
O 	O 	0.90636 0.68246 0.68772 -0.43900
O 	O 	0.89954 0.67969 0.48800 -0.38000
O 	O 	0.10792 0.72384 0.58031 -0.37500
C 	C 	0.11502 0.73491 0.53604 0.30800
C 	C 	0.99684 0.58960 0.52572 0.25900
O 	O 	0.03473 0.62455 0.52095 -0.36500
O 	O 	0.06554 0.73282 0.50647 -0.37700
O 	O 	0.84244 0.66534 0.55519 -0.35800
C 	C 	0.85184 0.66215 0.67680 0.31400
O 	O 	0.12768 0.65758 0.64112 -0.37600
O 	O 	0.07232 0.62938 0.70433 -0.39600
H 	H 	0.96022 0.72653 0.58272 0.16500
H 	H 	0.01073 0.59854 0.62392 0.19500
Cu	Cu	0.57127 0.63936 0.89103 0.93000
Cu	Cu	0.50055 0.64703 0.78911 0.87100
Cu	Cu	0.43263 0.67321 0.87760 0.89900
Cu	Cu	0.49433 0.68739 0.97201 0.89800
C 	C 	0.63879 0.68272 0.96594 0.30300
O 	O 	0.54869 0.59164 0.93777 -0.35700
C 	C 	0.36102 0.64489 0.79429 0.30300
O 	O 	0.51132 0.69408 0.90738 -0.63800
O 	O 	0.49303 0.62658 0.85338 -0.64100
O 	O 	0.63607 0.63390 0.84008 -0.37200
O 	O 	0.57965 0.68013 0.79233 -0.42400
O 	O 	0.58656 0.67721 0.99225 -0.37600
O 	O 	0.37750 0.72085 0.90036 -0.37600
C 	C 	0.37053 0.73145 0.94476 0.31100
C 	C 	0.48937 0.58727 0.95471 0.29200
O 	O 	0.45144 0.62222 0.95952 -0.37700
O 	O 	0.42080 0.73065 0.97367 -0.38600
O 	O 	0.64359 0.66303 0.92499 -0.35600
C 	C 	0.63440 0.66029 0.80375 0.30700
O 	O 	0.35843 0.65493 0.83916 -0.37300
O 	O 	0.41373 0.62685 0.77586 -0.41400
H 	H 	0.52560 0.72406 0.89751 0.16800
H 	H 	0.47552 0.59606 0.85636 0.17400
Cu	Cu	0.91206 0.36309 0.39327 0.92800
Cu	Cu	0.98152 0.35395 0.29085 0.86600
Cu	Cu	0.04768 0.32324 0.37812 0.90400
Cu	Cu	0.98718 0.31656 0.47609 0.89400
C 	C 	0.84341 0.32245 0.46918 0.30100
O 	O 	0.93660 0.41223 0.43784 -0.35700
C 	C 	0.12080 0.35593 0.29476 0.30500
O 	O 	0.96923 0.30765 0.41182 -0.64100
O 	O 	0.99105 0.37262 0.35514 -0.66500
O 	O 	0.84732 0.36769 0.34221 -0.37500
O 	O 	0.90284 0.32062 0.29482 -0.43000
O 	O 	0.89526 0.32841 0.49576 -0.37200
O 	O 	0.10033 0.27604 0.40474 -0.37500
C 	C 	0.10890 0.27030 0.44998 0.30700
C 	C 	0.99581 0.41593 0.45512 0.25200
O 	O 	0.03239 0.38046 0.46087 -0.34900
O 	O 	0.05891 0.27222 0.47900 -0.37000
O 	O 	0.83866 0.34253 0.42844 -0.36200
C 	C 	0.84820 0.34048 0.30651 0.30800
O 	O 	0.12007 0.33166 0.33338 -0.37600
O 	O 	0.06756 0.37526 0.27874 -0.40800
H 	H 	0.95157 0.27796 0.40396 0.16200
H 	H 	0.01145 0.40226 0.35861 0.19200
Cu	Cu	0.57108 0.36186 0.09123 0.93000
Cu	Cu	0.49817 0.35414 0.19227 0.87400
Cu	Cu	0.43364 0.32470 0.10450 0.89600
Cu	Cu	0.49664 0.31382 0.00903 0.89600
C 	C 	0.64016 0.31745 0.01812 0.30100
O 	O 	0.54900 0.41010 0.04499 -0.36300
C 	C 	0.35897 0.35708 0.18686 0.30200
O 	O 	0.51293 0.30654 0.07369 -0.63700
O 	O 	0.49128 0.37334 0.12787 -0.64100
O 	O 	0.63446 0.36658 0.14312 -0.37100
O 	O 	0.57634 0.32015 0.18948 -0.43500
O 	O 	0.58956 0.32326 0.99031 -0.36900
O 	O 	0.38250 0.27567 0.08055 -0.38100
C 	C 	0.37433 0.26689 0.03582 0.31300
C 	C 	0.49031 0.41398 0.02688 0.30600
O 	O 	0.45302 0.37879 0.02165 -0.38900
O 	O 	0.42303 0.27070 0.00579 -0.38900
O 	O 	0.64478 0.33961 0.05762 -0.35700
C 	C 	0.63160 0.33973 0.17901 0.31500
O 	O 	0.35848 0.33756 0.14538 -0.37600
O 	O 	0.41213 0.37598 0.20357 -0.41300
H 	H 	0.52894 0.27678 0.08292 0.17100
H 	H 	0.47213 0.40333 0.12409 0.17600
C 	C 	0.68544 0.33937 0.21276 -0.11900
C 	C 	0.71835 0.29964 0.22273 -0.05700
C 	C 	0.77147 0.29956 0.25360 0.16600
C 	C 	0.79206 0.33958 0.27443 -0.11500
C 	C 	0.75826 0.37909 0.26492 -0.06300
C 	C 	0.70545 0.37916 0.23411 0.17000
H 	H 	0.70316 0.26891 0.20628 0.05900
O 	O 	0.80344 0.26053 0.26300 -0.28800
H 	H 	0.77348 0.40997 0.28104 0.06100
O 	O 	0.67195 0.41789 0.22610 -0.30300
H 	H 	0.69509 0.43246 0.19982 0.15300
H 	H 	0.78054 0.24770 0.29036 0.14600
C 	C 	0.18196 0.35941 0.26747 -0.10400
C 	C 	0.17905 0.36164 0.21855 -0.06100
C 	C 	0.23642 0.36170 0.19192 0.16900
C 	C 	0.29775 0.35974 0.21424 -0.10400
C 	C 	0.30066 0.35919 0.26321 -0.06200
C 	C 	0.24329 0.35893 0.28982 0.16900
H 	H 	0.13219 0.36254 0.20100 0.05800
O 	O 	0.23239 0.36552 0.14430 -0.28000
H 	H 	0.34752 0.35825 0.28076 0.05500
O 	O 	0.24736 0.36005 0.33760 -0.28200
H 	H 	0.25168 0.32858 0.34739 0.15400
H 	H 	0.22659 0.33475 0.13263 0.15200
C 	C 	0.46866 0.54400 0.97299 -0.08600
C 	C 	0.46496 0.50754 0.94263 -0.06600
C 	C 	0.46472 0.46420 0.96039 0.18800
C 	C 	0.46908 0.45724 0.00881 -0.12200
C 	C 	0.46567 0.49367 0.03921 -0.04700
C 	C 	0.46569 0.53701 0.02147 0.15600
H 	H 	0.46614 0.51272 0.90521 0.05500
O 	O 	0.46618 0.42881 0.93026 -0.29400
H 	H 	0.46711 0.48847 0.07662 0.05000
O 	O 	0.46548 0.57245 0.05158 -0.28800
H 	H 	0.51211 0.57846 0.05854 0.14700
H 	H 	0.41975 0.42089 0.92498 0.15000
C 	C 	0.01764 0.45914 0.47296 -0.07400
C 	C 	0.02168 0.49533 0.44230 -0.06300
C 	C 	0.02231 0.53881 0.45968 0.16900
C 	C 	0.01803 0.54618 0.50804 -0.08100
C 	C 	0.02132 0.50999 0.53875 -0.05900
C 	C 	0.02092 0.46651 0.52138 0.16500
H 	H 	0.02034 0.48986 0.40492 0.05900
O 	O 	0.02109 0.57396 0.42926 -0.28200
H 	H 	0.02000 0.51551 0.57611 0.05900
O 	O 	0.02097 0.43131 0.55180 -0.26600
H 	H 	0.97432 0.42555 0.55892 0.13100
H 	H 	0.06758 0.58169 0.42390 0.14700
C 	C 	0.18593 0.64647 0.71284 -0.10300
C 	C 	0.20617 0.68486 0.73635 -0.06000
C 	C 	0.26282 0.68430 0.76365 0.16700
C 	C 	0.30016 0.64518 0.76705 -0.10500
C 	C 	0.28007 0.60678 0.74325 -0.05600
C 	C 	0.22318 0.60735 0.71612 0.17200
H 	H 	0.17782 0.71515 0.73360 0.05300
O 	O 	0.28334 0.72257 0.78512 -0.29200
H 	H 	0.30840 0.57648 0.74591 0.06500
O 	O 	0.20326 0.56940 0.69376 -0.28100
H 	H 	0.22430 0.57050 0.66261 0.15100
H 	H 	0.26147 0.72266 0.81600 0.15300
C 	C 	0.79713 0.66197 0.70995 -0.12000
C 	C 	0.76646 0.70194 0.72230 -0.05600
C 	C 	0.71316 0.70175 0.75302 0.16500
C 	C 	0.69032 0.66129 0.77151 -0.11300
C 	C 	0.72181 0.62148 0.75967 -0.06400
C 	C 	0.77465 0.62164 0.72882 0.17000
H 	H 	0.78359 0.73310 0.70787 0.05800
O 	O 	0.68325 0.74101 0.76461 -0.28400
H 	H 	0.70485 0.59025 0.77406 0.06000
O 	O 	0.80592 0.58252 0.71855 -0.30200
H 	H 	0.78203 0.57001 0.69146 0.15400
H 	H 	0.70666 0.75183 0.79270 0.14600
C 	C 	0.28582 0.21048 0.49961 -0.10200
C 	C 	0.25421 0.24306 0.52626 -0.05800
C 	C 	0.19685 0.26299 0.51001 0.17100
C 	C 	0.17044 0.25032 0.46662 -0.10100
C 	C 	0.20256 0.21809 0.43960 -0.05700
C 	C 	0.26013 0.19825 0.45585 0.16900
H 	H 	0.27406 0.25287 0.55979 0.06600
O 	O 	0.16801 0.29604 0.53576 -0.28700
H 	H 	0.18231 0.20782 0.40636 0.06800
O 	O 	0.28912 0.16526 0.43011 -0.27600
H 	H 	0.31951 0.18081 0.40867 0.14800
H 	H 	0.13843 0.28054 0.55781 0.15700
C 	C 	0.67047 0.26033 0.52271 -0.10400
C 	C 	0.73212 0.24287 0.53360 -0.06000
C 	C 	0.78888 0.26335 0.51682 0.16400
C 	C 	0.78429 0.30232 0.48978 -0.10200
C 	C 	0.72260 0.32071 0.48042 -0.05800
C 	C 	0.66590 0.30007 0.49700 0.17000
H 	H 	0.73601 0.21265 0.55398 0.06100
O 	O 	0.84871 0.24504 0.52657 -0.29400
H 	H 	0.71856 0.35104 0.46027 0.07200
O 	O 	0.60606 0.31852 0.48758 -0.28200
H 	H 	0.59721 0.33892 0.51401 0.14800
H 	H 	0.85738 0.22396 0.50069 0.13600
C 	C 	0.31476 0.24333 0.02115 -0.12000
C 	C 	0.25340 0.26159 0.03143 -0.05100
C 	C 	0.19637 0.24144 0.01470 0.15000
C 	C 	0.20051 0.20263 0.98740 -0.08400
C 	C 	0.26180 0.18343 0.97868 -0.06600
C 	C 	0.31878 0.20366 0.99525 0.18700
H 	H 	0.24997 0.29207 0.05141 0.05800
O 	O 	0.13700 0.26111 0.02283 -0.29400
H 	H 	0.26533 0.15293 0.95875 0.08000
O 	O 	0.37809 0.18371 0.98763 -0.28100
H 	H 	0.39259 0.19451 0.95661 0.15400
H 	H 	0.12182 0.24870 0.05300 0.14600
C 	C 	0.69870 0.29480 0.00000 -0.11800
C 	C 	0.72168 0.30431 0.95497 -0.04300
C 	C 	0.77826 0.28366 0.93800 0.16200
C 	C 	0.81233 0.25300 0.96625 -0.08700
C 	C 	0.78885 0.24332 0.01113 -0.07700
C 	C 	0.73271 0.26430 0.02818 0.17500
H 	H 	0.69632 0.32829 0.93336 0.06600
O 	O 	0.80191 0.29523 0.89489 -0.27900
H 	H 	0.81415 0.21941 0.03287 0.06000
O 	O 	0.70970 0.25365 0.07174 -0.29800
H 	H 	0.73213 0.27429 0.09345 0.15600
H 	H 	0.77917 0.27540 0.87252 0.15100
C 	C 	0.18900 0.17871 0.77307 -0.10900
C 	C 	0.17956 0.18339 0.72478 -0.06200
C 	C 	0.23314 0.18347 0.69443 0.17300
C 	C 	0.29685 0.17917 0.71237 -0.11400
C 	C 	0.30649 0.17795 0.76084 -0.05700
C 	C 	0.25295 0.17805 0.79120 0.16700
H 	H 	0.13059 0.18532 0.71058 0.05200
O 	O 	0.22327 0.18893 0.64741 -0.28500
H 	H 	0.35544 0.17545 0.77499 0.04600
O 	O 	0.26318 0.17604 0.83847 -0.27600
H 	H 	0.26540 0.20740 0.84897 0.14800
H 	H 	0.21520 0.15865 0.63503 0.16100
C 	C 	0.68385 0.14540 0.71603 -0.10200
C 	C 	0.74438 0.14578 0.69302 -0.05800
C 	C 	0.80259 0.14660 0.71854 0.16500
C 	C 	0.80088 0.14504 0.76774 -0.10300
C 	C 	0.74037 0.14361 0.79073 -0.05800
C 	C 	0.68212 0.14476 0.76526 0.16500
H 	H 	0.74642 0.14617 0.65524 0.07000
O 	O 	0.86107 0.14916 0.69532 -0.28900
H 	H 	0.73835 0.14227 0.82849 0.07000
O 	O 	0.62361 0.14552 0.78858 -0.28600
H 	H 	0.61381 0.17742 0.79366 0.13300
H 	H 	0.86991 0.18138 0.69179 0.13400
C 	C 	0.67591 0.74880 0.46025 -0.10400
C 	C 	0.67037 0.70818 0.48387 -0.05800
C 	C 	0.72616 0.68647 0.50052 0.17100
C 	C 	0.78839 0.70548 0.49359 -0.10300
C 	C 	0.79402 0.74525 0.46836 -0.06100
C 	C 	0.73815 0.76680 0.45149 0.16700
H 	H 	0.62273 0.69344 0.48947 0.06400
O 	O 	0.71999 0.64584 0.52177 -0.27700
H 	H 	0.84164 0.76002 0.46274 0.05200
O 	O 	0.74430 0.80663 0.42865 -0.28800
H 	H 	0.74937 0.79882 0.39522 0.15600
H 	H 	0.71101 0.65249 0.55507 0.15700
C 	C 	0.28897 0.80009 0.48897 -0.09900
C 	C 	0.22789 0.82041 0.48256 -0.05600
C 	C 	0.17090 0.79977 0.49861 0.17200
C 	C 	0.17475 0.75864 0.52186 -0.10200
C 	C 	0.23602 0.73933 0.53017 -0.05800
C 	C 	0.29296 0.75959 0.51338 0.16600
H 	H 	0.22450 0.85211 0.46481 0.07400
O 	O 	0.11184 0.82069 0.49320 -0.27800
H 	H 	0.23939 0.70794 0.54853 0.06300
O 	O 	0.35235 0.73963 0.52062 -0.29100
H 	H 	0.35896 0.71988 0.49332 0.13900
H 	H 	0.09612 0.81175 0.46183 0.15400
C 	C 	0.50886 0.04617 0.51242 -0.10500
C 	C 	0.51743 0.04047 0.46426 -0.05500
C 	C 	0.51859 0.99771 0.44501 0.17000
C 	C 	0.51316 0.96034 0.47422 -0.10300
C 	C 	0.51212 0.96607 0.52275 -0.05500
C 	C 	0.50886 0.00881 0.54192 0.17100
H 	H 	0.51907 0.06915 0.44144 0.05700
O 	O 	0.52409 0.99251 0.39761 -0.29600
H 	H 	0.50934 0.93738 0.54551 0.05900
O 	O 	0.50536 0.01400 0.58941 -0.29700
H 	H 	0.45813 0.01277 0.59703 0.14900
H 	H 	0.47869 0.99335 0.38555 0.14500
C 	C 	0.81006 0.74584 0.02075 -0.12300
C 	C 	0.81547 0.70505 0.99741 -0.04100
C 	C 	0.75969 0.68362 0.98036 0.16100
C 	C 	0.69761 0.70303 0.98668 -0.08700
C 	C 	0.69207 0.74302 0.01153 -0.07900
C 	C 	0.74791 0.76435 0.02873 0.17600
H 	H 	0.86301 0.68997 0.99234 0.05900
O 	O 	0.76569 0.64287 0.95933 -0.27400
H 	H 	0.64455 0.75812 0.01664 0.05500
O 	O 	0.74190 0.80443 0.05111 -0.29000
H 	H 	0.73573 0.79696 0.08452 0.15700
H 	H 	0.77516 0.64933 0.92607 0.15600
C 	C 	0.19769 0.79672 0.99360 -0.09000
C 	C 	0.19300 0.75583 0.97035 -0.06400
C 	C 	0.24918 0.73489 0.95315 0.16900
C 	C 	0.31075 0.75484 0.95930 -0.10200
C 	C 	0.31521 0.79649 0.98100 -0.05800
C 	C 	0.25911 0.81745 0.99819 0.17700
H 	H 	0.14597 0.73970 0.96663 0.05700
O 	O 	0.24424 0.69376 0.93284 -0.28600
H 	H 	0.36228 0.81256 0.98476 0.06700
O 	O 	0.26406 0.85891 0.01776 -0.28400
H 	H 	0.27465 0.85366 0.05108 0.15600
H 	H 	0.23667 0.69960 0.89922 0.15300
C 	C 	0.97269 0.95653 0.00774 -0.11600
C 	C 	0.97348 0.96255 0.95924 -0.04200
C 	C 	0.97598 0.00542 0.94038 0.16200
C 	C 	0.97554 0.04261 0.97013 -0.08700
C 	C 	0.96722 0.03656 0.01827 -0.07600
C 	C 	0.96682 0.99369 0.03722 0.17700
H 	H 	0.97657 0.93402 0.93627 0.05400
O 	O 	0.97921 0.01092 0.89291 -0.31200
H 	H 	0.96527 0.06509 0.04130 0.05600
O 	O 	0.96158 0.98817 0.08459 -0.31500
H 	H 	0.00702 0.98924 0.09657 0.16500
H 	H 	0.02642 0.01006 0.88518 0.16700
C 	C 	0.18809 0.83720 0.21122 -0.11700
C 	C 	0.21797 0.79718 0.22434 -0.05600
C 	C 	0.27138 0.79744 0.25494 0.16700
C 	C 	0.29419 0.83795 0.27335 -0.11500
C 	C 	0.26334 0.87780 0.26086 -0.06100
C 	C 	0.21086 0.87760 0.22975 0.17000
H 	H 	0.20034 0.76593 0.21040 0.05900
O 	O 	0.29935 0.75803 0.26829 -0.28500
H 	H 	0.28047 0.90909 0.27501 0.06000
O 	O 	0.18010 0.91677 0.21895 -0.29500
H 	H 	0.20455 0.92903 0.19199 0.15400
H 	H 	0.33347 0.75191 0.24457 0.14600
C 	C 	0.79814 0.85831 0.21246 -0.10300
C 	C 	0.74865 0.82744 0.20257 -0.06200
C 	C 	0.69140 0.82662 0.22922 0.16500
C 	C 	0.68313 0.85682 0.26616 -0.10500
C 	C 	0.73202 0.88803 0.27589 -0.05500
C 	C 	0.78888 0.88948 0.24873 0.16600
H 	H 	0.75512 0.80342 0.17478 0.06000
O 	O 	0.64323 0.79654 0.21880 -0.30200
H 	H 	0.72548 0.91173 0.30398 0.06600
O 	O 	0.83510 0.92136 0.25761 -0.28100
H 	H 	0.82270 0.94707 0.23786 0.15100
H 	H 	0.65363 0.76979 0.23759 0.13900
