data_crystal

_cell_length_a 17.90533
_cell_length_b 18.01118
_cell_length_c 49.17357
_cell_angle_alpha 90.68383
_cell_angle_beta  90.94998
_cell_angle_gamma 110.68844

_symmetry_space_group_name_	'P 1'
_symmetry_space_group_name_H-M	'P 1'

loop_
_symmetry_equiv_pos_as_xyz
  x,y,z

loop_
_atom_site_label
_atom_site_type_symbol
_atom_site_fract_x
_atom_site_fract_y
_atom_site_fract_z
_atom_site_charge
O 	O 	0.53074 0.31661 0.92163 -0.37600
O 	O 	0.56275 0.20462 0.88908 -0.36800
O 	O 	0.62899 0.23088 0.94247 -0.38100
C 	C 	0.57745 0.18432 0.86460 0.28600
C 	C 	0.64717 0.16634 0.93978 0.29500
C 	C 	0.57661 0.31850 0.67794 0.29300
C 	C 	0.59141 0.23111 0.60663 0.29900
Ni	Ni	0.16801 0.11109 0.77358 1.10400
O 	O 	0.08584 0.01700 0.79246 -0.68000
O 	O 	0.15088 0.19622 0.79845 -0.36700
O 	O 	0.25683 0.10884 0.80039 -0.37200
O 	O 	0.32554 0.11253 0.74594 -0.40400
O 	O 	0.15375 0.02350 0.74650 -0.69800
O 	O 	0.25377 0.19527 0.75287 -0.36800
O 	O 	0.19119 0.87183 0.74364 -0.40800
Ni	Ni	0.24904 0.99634 0.74477 1.05800
H 	H 	0.11190 0.99742 0.80722 0.13700
H 	H 	0.14137 0.03979 0.72832 0.16000
O 	O 	0.26156 0.98999 0.78572 -0.43600
C 	C 	0.07801 0.19495 0.80243 0.27300
C 	C 	0.29064 0.05488 0.80069 0.32400
C 	C 	0.12022 0.83202 0.73224 0.27300
C 	C 	0.30741 0.17557 0.73911 0.27100
Ni	Ni	0.34198 0.72832 0.40084 1.09800
O 	O 	0.28797 0.61712 0.38477 -0.70400
Ni	Ni	0.18292 0.62286 0.37212 1.10100
O 	O 	0.44071 0.70300 0.41282 -0.37400
O 	O 	0.36429 0.59727 0.43747 -0.41200
O 	O 	0.38783 0.75646 0.36322 -0.40200
Ni	Ni	0.26826 0.53485 0.41168 1.06700
O 	O 	0.29838 0.89861 0.40479 -0.41500
O 	O 	0.20529 0.58412 0.43538 -0.42100
O 	O 	0.14008 0.51372 0.35423 -0.37400
O 	O 	0.23294 0.72940 0.39225 -0.70500
O 	O 	0.39468 0.84367 0.41373 -0.38700
O 	O 	0.09169 0.65109 0.35459 -0.36900
O 	O 	0.17990 0.76633 0.33827 -0.41800
Ni	Ni	0.24460 0.82676 0.37237 1.06700
H 	H 	0.31722 0.60607 0.36924 0.15900
H 	H 	0.20533 0.73006 0.40946 0.15200
C 	C 	0.13184 0.57710 0.42940 0.30800
O 	O 	0.35011 0.86042 0.35161 -0.39800
C 	C 	0.43486 0.64495 0.42968 0.29200
C 	C 	0.15442 0.45467 0.36606 0.27900
C 	C 	0.40489 0.82723 0.35313 0.30700
C 	C 	0.10628 0.71569 0.34030 0.27300
C 	C 	0.35218 0.88672 0.42136 0.28900
O 	O 	0.10774 0.57634 0.40398 -0.37100
O 	O 	0.16798 0.45674 0.39270 -0.40700
Ni	Ni	0.12293 0.65016 0.16739 1.09900
O 	O 	0.20762 0.71839 0.14127 -0.69900
Ni	Ni	0.25982 0.64185 0.12959 1.09900
O 	O 	0.08568 0.74336 0.17644 -0.36700
O 	O 	0.21268 0.82526 0.18655 -0.41100
O 	O 	0.04748 0.62564 0.13411 -0.38700
Ni	Ni	0.28990 0.81024 0.15783 1.06400
O 	O 	0.07343 0.46677 0.18758 -0.41400
O 	O 	0.32027 0.74225 0.18552 -0.41600
O 	O 	0.33266 0.71175 0.10154 -0.38300
O 	O 	0.18644 0.58027 0.15906 -0.70300
O 	O 	0.03304 0.57535 0.19091 -0.36700
O 	O 	0.28307 0.54516 0.11550 -0.38500
O 	O 	0.15130 0.47119 0.10934 -0.42000
Ni	Ni	0.11485 0.47281 0.14937 1.06900
H 	H 	0.18321 0.73465 0.12527 0.15000
H 	H 	0.21798 0.57783 0.17552 0.15900
C 	C 	0.36730 0.70368 0.17914 0.29200
O 	O 	0.01603 0.49220 0.13494 -0.40300
C 	C 	0.13802 0.81570 0.18042 0.26700
C 	C 	0.37160 0.78756 0.10710 0.29600
C 	C 	0.02124 0.55631 0.12171 0.29400
C 	C 	0.22641 0.48704 0.10300 0.29400
C 	C 	0.02060 0.49881 0.19477 0.28100
O 	O 	0.35845 0.66638 0.15542 -0.37000
O 	O 	0.38160 0.81444 0.13263 -0.41600
Ni	Ni	0.01353 0.99772 0.28692 1.05300
O 	O 	0.07902 0.05535 0.25493 -0.38500
O 	O 	0.03409 0.17995 0.27575 -0.38000
C 	C 	0.04677 0.04994 0.23066 0.28600
C 	C 	0.05377 0.16957 0.30111 0.27900
O 	O 	0.99091 0.07951 0.22613 -0.37300
O 	O 	0.05580 0.10026 0.30932 -0.40200
C 	C 	0.95153 0.45017 0.21031 -0.06000
C 	C 	0.88593 0.39670 0.19585 -0.03000
C 	C 	0.84351 0.32227 0.20668 0.04000
C 	C 	0.96207 0.43652 0.23801 0.04800
S 	S 	0.76709 0.25245 0.18708 -0.07900
S 	S 	0.03398 0.50880 0.25836 -0.05000
H 	H 	0.10582 0.49806 0.25670 0.03700
H 	H 	0.69546 0.25989 0.19289 0.03600
H 	H 	0.87377 0.40920 0.17506 0.05200
C 	C 	0.44113 0.71798 0.19564 -0.08100
C 	C 	0.44506 0.74242 0.22317 0.03800
S 	S 	0.35948 0.71171 0.24332 -0.04800
H 	H 	0.35295 0.64173 0.25551 0.03300
C 	C 	0.11113 0.88435 0.18436 -0.07900
C 	C 	0.16898 0.95949 0.19030 -0.05400
C 	C 	0.14738 0.01849 0.20296 0.05600
C 	C 	0.06717 0.00300 0.20939 -0.06100
C 	C 	0.00801 0.93363 0.19916 -0.06400
C 	C 	0.02936 0.87505 0.18587 0.03000
S 	S 	0.22121 0.11139 0.21077 -0.03900
S 	S 	0.95475 0.79786 0.16808 -0.01900
H 	H 	0.92134 0.73554 0.18502 0.05100
H 	H 	0.22755 0.16113 0.18938 0.03300
H 	H 	0.23135 0.97070 0.18632 0.02600
H 	H 	0.94553 0.92401 0.20238 0.03800
C 	C 	0.47884 0.86073 0.33735 -0.07800
S 	S 	0.49455 0.00959 0.35785 -0.00600
H 	H 	0.44253 0.03608 0.34374 0.03800
C 	C 	0.13545 0.37933 0.35101 -0.08500
C 	C 	0.07544 0.31135 0.36033 -0.01700
C 	C 	0.04974 0.24145 0.34456 0.02300
C 	C 	0.08539 0.23905 0.31935 -0.07500
C 	C 	0.14780 0.30601 0.31063 -0.02500
C 	C 	0.17307 0.37600 0.32630 0.03800
S 	S 	0.25250 0.45877 0.31495 -0.07900
H 	H 	0.22261 0.50457 0.29922 0.03900
H 	H 	0.04666 0.31375 0.37938 0.04600
H 	H 	0.17599 0.30390 0.29143 0.05100
C 	C 	0.04153 0.72653 0.32392 -0.09000
C 	C 	0.03725 0.71141 0.29583 -0.03500
C 	C 	0.98466 0.73380 0.27931 0.04600
C 	C 	0.93786 0.77421 0.29082 -0.08500
C 	C 	0.93431 0.77922 0.31925 -0.03700
C 	C 	0.98658 0.75639 0.33586 0.03800
S 	S 	0.98092 0.71480 0.24405 -0.01200
S 	S 	0.98566 0.76958 0.37137 -0.04500
H 	H 	0.03891 0.84312 0.37868 -0.00500
H 	H 	0.03991 0.77560 0.23221 0.03600
H 	H 	0.07680 0.68487 0.28672 0.04600
C 	C 	0.47583 0.09336 0.54185 -0.04200
C 	C 	0.47097 0.01430 0.53904 0.04200
C 	C 	0.44154 0.97218 0.51477 -0.11900
C 	C 	0.41698 0.00903 0.49322 0.07100
C 	C 	0.41961 0.08732 0.49632 -0.07000
C 	C 	0.44896 0.12942 0.52060 -0.00400
C 	C 	0.51476 0.13959 0.56543 0.06100
C 	C 	0.39303 0.96777 0.46755 -0.00400
C 	C 	0.37398 0.93186 0.44625 -0.09100
H 	H 	0.43935 0.91150 0.51253 0.05800
H 	H 	0.40041 0.11603 0.47977 0.05300
H 	H 	0.45255 0.19057 0.52265 0.03500
C 	C 	0.98908 0.52819 0.49498 0.01400
C 	C 	0.98104 0.58994 0.51088 -0.04100
C 	C 	0.03328 0.54635 0.47030 0.02700
C 	C 	0.07549 0.56100 0.45081 -0.10500
H 	H 	0.99512 0.64863 0.50254 0.04400
C 	C 	0.67383 0.61687 0.53307 -0.00500
C 	C 	0.65264 0.68451 0.53139 -0.03500
C 	C 	0.62075 0.70132 0.50706 -0.03500
C 	C 	0.60933 0.65019 0.48438 -0.00400
C 	C 	0.63694 0.58647 0.48543 -0.03400
C 	C 	0.66910 0.56982 0.50974 -0.03300
C 	C 	0.69097 0.59046 0.55919 0.04300
C 	C 	0.55400 0.65204 0.46304 0.04300
C 	C 	0.50250 0.65054 0.44671 -0.10300
H 	H 	0.60020 0.75112 0.50638 0.03900
H 	H 	0.62898 0.54697 0.46796 0.04000
H 	H 	0.68663 0.51813 0.51075 0.04300
C 	C 	0.50298 0.30806 0.69278 -0.08100
C 	C 	0.42892 0.26997 0.67955 -0.02100
C 	C 	0.36045 0.23410 0.69474 0.02700
C 	C 	0.36600 0.23687 0.72334 -0.07000
C 	C 	0.43721 0.28532 0.73632 -0.02300
C 	C 	0.50577 0.32101 0.72117 0.04000
S 	S 	0.26921 0.18184 0.67781 -0.06000
S 	S 	0.59479 0.38079 0.73792 -0.05900
H 	H 	0.63791 0.33472 0.74561 0.04300
H 	H 	0.26172 0.10387 0.67450 0.01800
H 	H 	0.42571 0.26292 0.65759 0.05300
H 	H 	0.44074 0.29052 0.75834 0.04700
C 	C 	0.91892 0.54328 0.04634 -0.00100
C 	C 	0.94902 0.60887 0.02943 -0.03500
C 	C 	0.95264 0.54570 0.07323 0.04100
C 	C 	0.98274 0.54926 0.09553 -0.09300
H 	H 	0.99559 0.66248 0.03688 0.04000
C 	C 	0.58235 0.01580 0.00353 0.02900
C 	C 	0.53783 0.93507 0.99908 -0.06900
C 	C 	0.50025 0.88783 0.02080 -0.01500
C 	C 	0.50695 0.92113 0.04705 -0.04000
C 	C 	0.55422 0.00102 0.05170 0.00100
C 	C 	0.59187 0.04824 0.02999 -0.05500
C 	C 	0.60896 0.06729 0.98071 0.03500
C 	C 	0.62828 0.11167 0.96181 -0.09500
C 	C 	0.46079 0.87489 0.06873 0.04900
C 	C 	0.42075 0.83560 0.08650 -0.11800
H 	H 	0.53012 0.90952 0.97871 0.04400
H 	H 	0.46416 0.82599 0.01707 0.03500
H 	H 	0.56005 0.02709 0.07195 0.03300
C 	C 	0.28687 0.41429 0.03080 -0.00600
C 	C 	0.29588 0.46469 0.00863 -0.03300
C 	C 	0.33661 0.45442 0.98573 -0.03500
C 	C 	0.36817 0.39354 0.98490 -0.00400
C 	C 	0.35434 0.33984 0.00627 -0.03400
C 	C 	0.31382 0.35026 0.02920 -0.03300
C 	C 	0.26190 0.43566 0.05640 0.04600
C 	C 	0.24416 0.45704 0.07782 -0.10900
C 	C 	0.42250 0.39188 0.96395 0.04600
H 	H 	0.27472 0.51407 0.00967 0.03900
H 	H 	0.34648 0.49574 0.96917 0.03800
H 	H 	0.30664 0.31076 0.04620 0.03900
C 	C 	0.36868 0.07401 0.81465 -0.09100
C 	C 	0.43564 0.13218 0.80372 -0.01800
C 	C 	0.50581 0.16616 0.81933 0.03200
C 	C 	0.50979 0.14106 0.84619 -0.07100
C 	C 	0.44490 0.07855 0.85638 -0.02900
C 	C 	0.37439 0.04519 0.84078 0.06100
S 	S 	0.58630 0.24314 0.80549 -0.05500
S 	S 	0.29297 0.96920 0.85452 -0.07800
H 	H 	0.29697 0.89694 0.84740 0.03900
H 	H 	0.57644 0.31433 0.80993 0.02400
H 	H 	0.43186 0.15405 0.78354 0.05000
H 	H 	0.44848 0.05753 0.87676 0.05900
Ni	Ni	0.63515 0.30321 0.91062 1.09700
O 	O 	0.64993 0.37425 0.87752 -0.70300
Ni	Ni	0.76414 0.39050 0.86806 1.09800
O 	O 	0.58771 0.45126 0.92259 -0.41800
Ni	Ni	0.63549 0.47650 0.88397 1.06600
O 	O 	0.65764 0.14000 0.91530 -0.40300
O 	O 	0.74060 0.54106 0.90338 -0.39500
O 	O 	0.78452 0.47675 0.83929 -0.37400
O 	O 	0.74395 0.31068 0.89884 -0.70600
O 	O 	0.87204 0.38050 0.85952 -0.36400
O 	O 	0.81802 0.24531 0.85579 -0.40700
Ni	Ni	0.73729 0.20448 0.88708 1.06700
H 	H 	0.61412 0.34587 0.86227 0.15200
H 	H 	0.78311 0.33021 0.91410 0.15500
C 	C 	0.78844 0.50696 0.91309 0.29200
O 	O 	0.64988 0.18944 0.85825 -0.40500
C 	C 	0.52761 0.38623 0.92794 0.29700
C 	C 	0.75594 0.53497 0.84114 0.29400
C 	C 	0.88104 0.31127 0.85730 0.28100
O 	O 	0.82499 0.47485 0.89647 -0.37900
O 	O 	0.68056 0.52014 0.84743 -0.41400
Ni	Ni	0.82318 0.38230 0.67431 1.10000
O 	O 	0.74541 0.30995 0.64601 -0.70400
Ni	Ni	0.69001 0.38139 0.63206 1.10000
O 	O 	0.86493 0.29338 0.68454 -0.36300
O 	O 	0.73870 0.20819 0.69332 -0.40500
O 	O 	0.90185 0.41199 0.64299 -0.38300
Ni	Ni	0.66562 0.21681 0.66088 1.06600
O 	O 	0.85909 0.56316 0.69655 -0.41400
O 	O 	0.62405 0.28234 0.68659 -0.41600
O 	O 	0.62594 0.30749 0.60193 -0.38000
O 	O 	0.75473 0.44664 0.66406 -0.70000
O 	O 	0.90739 0.46039 0.70029 -0.36500
O 	O 	0.66219 0.47353 0.61626 -0.38200
O 	O 	0.79202 0.55705 0.61604 -0.41500
Ni	Ni	0.82075 0.55708 0.65736 1.07000
H 	H 	0.77342 0.29423 0.63105 0.15600
H 	H 	0.71945 0.44594 0.67941 0.15800
O 	O 	0.92376 0.54352 0.64588 -0.40300
C 	C 	0.81606 0.22262 0.69161 0.26900
C 	C 	0.92218 0.48143 0.63163 0.31600
C 	C 	0.71825 0.53545 0.60643 0.29200
C 	C 	0.91580 0.53612 0.70398 0.29300
O 	O 	0.58601 0.35072 0.65379 -0.36900
O 	O 	0.57785 0.20539 0.63192 -0.41100
Ni	Ni	0.05826 0.93735 0.76176 1.08800
O 	O 	0.01651 0.13784 0.79163 -0.42200
Ni	Ni	0.98528 0.02269 0.80536 1.07700
O 	O 	0.90987 0.98343 0.77226 -0.41300
O 	O 	0.95620 0.85353 0.77601 -0.37400
O 	O 	0.06454 0.86370 0.73104 -0.39200
C 	C 	0.93399 0.00462 0.74764 0.33000
C 	C 	0.93797 0.84588 0.80206 0.28800
O 	O 	0.99266 0.98572 0.73780 -0.39900
O 	O 	0.95096 0.90874 0.81841 -0.41000
Ni	Ni	0.82080 0.92851 0.25855 1.09400
O 	O 	0.91128 0.01177 0.28035 -0.68600
Ni	Ni	0.93026 0.10696 0.25736 1.10200
O 	O 	0.84299 0.83341 0.27527 -0.37000
O 	O 	0.97342 0.89213 0.26470 -0.41600
O 	O 	0.74655 0.92718 0.29006 -0.38100
O 	O 	0.66686 0.94386 0.22210 -0.42200
O 	O 	0.83175 0.02772 0.23872 -0.70100
O 	O 	0.72498 0.85364 0.23683 -0.37900
O 	O 	0.92017 0.19871 0.23553 -0.37300
O 	O 	0.79246 0.17229 0.24996 -0.40500
Ni	Ni	0.73473 0.05202 0.23900 1.07300
H 	H 	0.89116 0.02274 0.29802 0.15700
H 	H 	0.84305 0.01943 0.21951 0.16100
O 	O 	0.70035 0.02480 0.27808 -0.39000
C 	C 	0.91582 0.83129 0.27434 0.27400
C 	C 	0.68783 0.95480 0.28860 0.26400
C 	C 	0.85699 0.21932 0.23775 0.27300
C 	C 	0.66109 0.87119 0.22978 0.28300
C 	C 	0.86606 0.30226 0.23234 -0.07300
C 	C 	0.91910 0.36247 0.24896 -0.02000
H 	H 	0.93304 0.34909 0.26946 0.04900
C 	C 	0.51239 0.72543 0.18247 -0.02300
C 	C 	0.58629 0.76867 0.19486 0.03800
C 	C 	0.58902 0.80544 0.22055 -0.07000
C 	C 	0.51832 0.78988 0.23490 -0.03100
S 	S 	0.67452 0.78090 0.17720 -0.03500
H 	H 	0.69396 0.84818 0.16204 0.03200
H 	H 	0.51038 0.70268 0.16186 0.05700
H 	H 	0.51975 0.81764 0.25464 0.04000
C 	C 	0.50901 0.80901 0.32352 -0.01800
C 	C 	0.58017 0.83852 0.30924 0.02500
C 	C 	0.61911 0.92150 0.30685 -0.06400
C 	C 	0.58999 0.97320 0.32122 -0.05100
C 	C 	0.52175 0.94335 0.33705 0.02800
S 	S 	0.62008 0.77061 0.29504 -0.03100
H 	H 	0.67222 0.75737 0.31339 0.04700
H 	H 	0.47746 0.74543 0.32410 0.04500
H 	H 	0.62146 0.03677 0.32058 0.06600
S 	S 	0.96977 0.15903 0.35582 -0.04300
H 	H 	0.89938 0.16197 0.34546 0.03200
H 	H 	0.89620 0.80752 0.32834 0.03400
C 	C 	0.54898 0.18014 0.58462 -0.11700
H 	H 	0.49164 0.98607 0.55539 0.00400
C 	C 	0.94808 0.50344 0.54968 -0.01200
C 	C 	0.94981 0.44006 0.53326 -0.02800
C 	C 	0.96994 0.45233 0.50592 -0.04000
C 	C 	0.96055 0.57758 0.53820 -0.02700
C 	C 	0.93958 0.49419 0.57859 0.05600
C 	C 	0.93259 0.48764 0.60284 -0.12600
H 	H 	0.93875 0.38216 0.54190 0.03900
H 	H 	0.97540 0.40408 0.49371 0.04600
H 	H 	0.95766 0.62646 0.55067 0.04100
C 	C 	0.70367 0.56636 0.58092 -0.10500
H 	H 	0.65724 0.72189 0.54924 0.03700
C 	C 	0.90219 0.05884 0.73268 -0.09500
C 	C 	0.87589 0.11168 0.74764 -0.01300
C 	C 	0.85026 0.16702 0.73444 0.03400
C 	C 	0.84959 0.16960 0.70583 -0.06700
C 	C 	0.87457 0.11641 0.69073 -0.03800
C 	C 	0.89919 0.05989 0.70388 0.05800
S 	S 	0.81825 0.23232 0.75406 -0.03600
S 	S 	0.91825 0.98672 0.68404 -0.07000
H 	H 	0.99756 0.01259 0.67780 0.05100
H 	H 	0.88000 0.30292 0.75830 0.04200
H 	H 	0.87514 0.10966 0.76964 0.04300
H 	H 	0.87223 0.11710 0.66869 0.03700
C 	C 	0.09442 0.74524 0.72987 -0.07700
C 	C 	0.04248 0.69942 0.74936 -0.03200
C 	C 	0.98982 0.62301 0.74252 0.04700
C 	C 	0.99006 0.59197 0.71615 -0.06200
C 	C 	0.05274 0.63148 0.69886 -0.04300
C 	C 	0.10416 0.70877 0.70540 0.04000
S 	S 	0.92025 0.56900 0.76641 -0.02800
S 	S 	0.17673 0.76094 0.68211 -0.06800
H 	H 	0.14466 0.80124 0.66476 0.02800
H 	H 	0.85052 0.58311 0.76265 0.04400
H 	H 	0.03800 0.72586 0.76892 0.03700
H 	H 	0.05666 0.60530 0.67922 0.05400
C 	C 	0.86106 0.53519 0.99269 -0.00700
C 	C 	0.82970 0.47023 0.00979 -0.03400
C 	C 	0.85860 0.47427 0.03657 -0.03500
C 	C 	0.92018 0.60480 0.00264 -0.03200
C 	C 	0.83596 0.52848 0.96455 0.04500
C 	C 	0.81468 0.52044 0.94099 -0.11600
H 	H 	0.78395 0.41621 0.00222 0.03700
H 	H 	0.83497 0.42340 0.04954 0.04200
H 	H 	0.94468 0.65523 0.98954 0.04200
H 	H 	0.62616 0.11060 0.03360 0.04600
C 	C 	0.46986 0.39012 0.94712 -0.10700
H 	H 	0.37797 0.29214 0.00563 0.04400
C 	C 	0.95710 0.30904 0.84737 -0.08300
C 	C 	0.98191 0.33733 0.82136 -0.00500
C 	C 	0.03612 0.31125 0.80757 0.02300
C 	C 	0.06403 0.25529 0.81966 -0.07200
C 	C 	0.05129 0.23972 0.84740 -0.05000
C 	C 	0.99683 0.26536 0.86124 0.04800
S 	S 	0.06403 0.34411 0.77443 -0.03600
S 	S 	0.97629 0.23963 0.89544 -0.09600
H 	H 	0.02683 0.29819 0.91202 0.03500
H 	H 	0.01724 0.28947 0.75584 0.04000
H 	H 	0.95469 0.37469 0.81111 0.04800
H 	H 	0.07683 0.20052 0.85734 0.03100
C 	C 	0.80308 0.61325 0.83028 -0.07200
C 	C 	0.87677 0.65718 0.84277 -0.02900
C 	C 	0.92146 0.73315 0.83372 0.05000
C 	C 	0.89183 0.76627 0.81210 -0.08000
C 	C 	0.81911 0.72155 0.79913 -0.02200
C 	C 	0.77500 0.64505 0.80789 0.03500
S 	S 	0.01586 0.78456 0.84882 -0.07600
S 	S 	0.68778 0.58809 0.78956 -0.04400
H 	H 	0.62322 0.60066 0.80046 0.03500
H 	H 	0.07327 0.76800 0.83449 0.03400
H 	H 	0.89923 0.63230 0.85965 0.05700
H 	H 	0.79718 0.74603 0.78203 0.04700
