data_crystal

_cell_length_a 23.87849
_cell_length_b 20.06718
_cell_length_c 45.28825
_cell_angle_alpha 89.89473
_cell_angle_beta  89.89679
_cell_angle_gamma 119.46599

_symmetry_space_group_name_	'P 1'
_symmetry_space_group_name_H-M	'P 1'

loop_
_symmetry_equiv_pos_as_xyz
  x,y,z

loop_
_atom_site_label
_atom_site_type_symbol
_atom_site_fract_x
_atom_site_fract_y
_atom_site_fract_z
_atom_site_charge
C 	C 	0.63059 0.31711 0.85767 0.28700
C 	C 	0.81765 0.58196 0.91899 0.31500
C 	C 	0.80872 0.41161 0.85040 0.33900
C 	C 	0.65413 0.52468 0.91779 0.30700
C 	C 	0.81305 0.41275 0.95556 0.30900
C 	C 	0.62196 0.26340 0.94405 0.29300
Ni	Ni	0.72863 0.47770 0.87395 1.11700
Ni	Ni	0.70473 0.43624 0.94569 1.12300
Ni	Ni	0.73497 0.33316 0.90246 1.12800
O 	O 	0.64563 0.39053 0.85582 -0.34400
O 	O 	0.67407 0.29556 0.86566 -0.34100
O 	O 	0.76284 0.41004 0.96786 -0.38800
O 	O 	0.81445 0.54380 0.89505 -0.36700
O 	O 	0.77533 0.55000 0.94102 -0.38000
O 	O 	0.66889 0.25738 0.93078 -0.36800
O 	O 	0.77185 0.43967 0.84283 -0.36100
O 	O 	0.81343 0.39824 0.87790 -0.36700
O 	O 	0.63165 0.32946 0.95578 -0.35600
O 	O 	0.68859 0.54148 0.89317 -0.36100
O 	O 	0.63765 0.46113 0.93192 -0.37700
O 	O 	0.80506 0.36564 0.93360 -0.35100
O 	O 	0.71072 0.40897 0.90643 -0.71600
H 	H 	0.66395 0.37726 0.90503 0.16000
C 	C 	0.54678 0.38691 0.58626 0.28600
C 	C 	0.80529 0.42841 0.61437 0.32000
C 	C 	0.71862 0.56356 0.56994 0.32800
C 	C 	0.63806 0.27044 0.62726 0.30300
C 	C 	0.76695 0.42875 0.51871 0.31800
C 	C 	0.60288 0.24651 0.53148 0.29400
Ni	Ni	0.68009 0.43381 0.61235 1.11900
Ni	Ni	0.71461 0.32539 0.57074 1.12200
Ni	Ni	0.64727 0.41308 0.54202 1.12400
O 	O 	0.59400 0.43596 0.60384 -0.35000
O 	O 	0.55834 0.37381 0.55875 -0.37500
O 	O 	0.75007 0.36012 0.52939 -0.37900
O 	O 	0.76373 0.43927 0.62985 -0.33300
O 	O 	0.79630 0.41422 0.58611 -0.38800
O 	O 	0.62139 0.31466 0.51927 -0.37600
O 	O 	0.73628 0.54098 0.59358 -0.36500
O 	O 	0.66493 0.51720 0.55645 -0.36800
O 	O 	0.63660 0.23763 0.55282 -0.38200
O 	O 	0.63354 0.33127 0.63502 -0.35400
O 	O 	0.68860 0.27712 0.61216 -0.35900
O 	O 	0.73729 0.46574 0.52697 -0.39600
O 	O 	0.66768 0.37772 0.57717 -0.71400
H 	H 	0.62531 0.33300 0.58120 0.14800
C 	C 	0.99758 0.93539 0.67839 0.30600
C 	C 	0.20773 0.11275 0.76131 0.29600
C 	C 	0.99961 0.94358 0.76850 0.31200
C 	C 	0.22670 0.11379 0.69626 0.30500
C 	C 	0.04174 0.19931 0.74679 0.30800
C 	C 	0.04949 0.18368 0.68165 0.29200
Ni	Ni	0.10376 0.99242 0.72326 1.10900
Ni	Ni	0.14686 0.17856 0.72174 1.12200
Ni	Ni	0.99465 0.04638 0.72162 1.13000
O 	O 	0.04889 0.93242 0.68721 -0.34500
O 	O 	0.96249 0.94891 0.69747 -0.35400
O 	O 	0.10339 0.22075 0.74825 -0.37000
O 	O 	0.16382 0.03978 0.75943 -0.36400
O 	O 	0.19083 0.16602 0.75832 -0.34600
O 	O 	0.00368 0.11085 0.68534 -0.34800
O 	O 	0.02679 0.91930 0.74949 -0.35200
O 	O 	0.97234 0.98319 0.75948 -0.34900
O 	O 	0.11150 0.20587 0.68576 -0.36000
O 	O 	0.18115 0.04215 0.69466 -0.35700
O 	O 	0.21250 0.16978 0.69531 -0.34100
O 	O 	0.99947 0.12688 0.74913 -0.35600
O 	O 	0.08318 0.07175 0.71865 -0.70000
H 	H 	0.08522 0.07171 0.69689 0.13800
C 	C 	0.35118 0.56410 0.38671 0.30500
C 	C 	0.10917 0.40604 0.45151 0.32900
C 	C 	0.18517 0.53354 0.36631 0.33100
C 	C 	0.26667 0.43250 0.47509 0.29400
C 	C 	0.17262 0.63964 0.44484 0.31800
C 	C 	0.34141 0.70895 0.46489 0.29900
Ni	Ni	0.22252 0.45513 0.41297 1.11800
Ni	Ni	0.22478 0.54876 0.47223 1.12500
Ni	Ni	0.27574 0.63729 0.41045 1.12400
O 	O 	0.31599 0.49460 0.39822 -0.34800
O 	O 	0.32583 0.60887 0.38091 -0.35400
O 	O 	0.16143 0.58389 0.46330 -0.38300
O 	O 	0.12977 0.42685 0.42451 -0.37100
O 	O 	0.14794 0.44000 0.47388 -0.37100
O 	O 	0.35037 0.69270 0.43760 -0.38700
O 	O 	0.20549 0.48423 0.37073 -0.34400
O 	O 	0.19493 0.58539 0.38606 -0.37900
O 	O 	0.29687 0.65641 0.48283 -0.36800
O 	O 	0.23196 0.39983 0.45090 -0.35800
O 	O 	0.27771 0.50040 0.48464 -0.37400
O 	O 	0.22993 0.68228 0.43329 -0.38500
O 	O 	0.25441 0.54853 0.43307 -0.71700
H 	H 	0.29792 0.55802 0.43793 0.16100
C 	C 	0.43385 0.61050 0.07266 0.28500
C 	C 	0.30481 0.68547 0.16788 0.33000
C 	C 	0.27163 0.48714 0.11328 0.33000
C 	C 	0.46835 0.80518 0.13097 0.30200
C 	C 	0.20813 0.64272 0.08114 0.31900
C 	C 	0.36481 0.77452 0.04546 0.29100
Ni	Ni	0.38257 0.63558 0.13132 1.12100
Ni	Ni	0.33298 0.75135 0.10868 1.12300
Ni	Ni	0.31054 0.61091 0.06833 1.12200
O 	O 	0.41766 0.58632 0.10046 -0.34300
O 	O 	0.39371 0.61852 0.05467 -0.37400
O 	O 	0.24945 0.71532 0.08620 -0.37200
O 	O 	0.35643 0.67800 0.16792 -0.34300
O 	O 	0.27881 0.68825 0.14295 -0.37300
O 	O 	0.32246 0.70011 0.04166 -0.37600
O 	O 	0.29426 0.53739 0.13452 -0.35600
O 	O 	0.29086 0.50753 0.08586 -0.36800
O 	O 	0.37898 0.80660 0.07197 -0.38300
O 	O 	0.46715 0.73856 0.13242 -0.36100
O 	O 	0.41466 0.80982 0.13407 -0.35800
O 	O 	0.22588 0.59117 0.08410 -0.39300
O 	O 	0.35766 0.67679 0.09985 -0.71400
H 	H 	0.39928 0.70910 0.09000 0.15800
C 	C 	0.77869 0.79617 0.28986 0.30300
C 	C 	0.00556 0.06780 0.24851 0.32000
C 	C 	0.83524 0.89266 0.21431 0.32400
C 	C 	0.95554 0.00577 0.33173 0.33300
C 	C 	0.02690 0.87057 0.23560 0.30900
C 	C 	0.96670 0.77906 0.29086 0.29500
Ni	Ni	0.87789 0.95775 0.27439 1.11400
Ni	Ni	0.00876 0.94793 0.28502 1.12800
Ni	Ni	0.88827 0.81199 0.24973 1.12700
O 	O 	0.80694 0.86863 0.29883 -0.35800
O 	O 	0.79615 0.77574 0.26484 -0.33900
O 	O 	0.04308 0.93816 0.24610 -0.37500
O 	O 	0.94326 0.03931 0.24555 -0.35400
O 	O 	0.02936 0.05516 0.27273 -0.33600
O 	O 	0.90708 0.75527 0.28153 -0.35700
O 	O 	0.81597 0.90650 0.23938 -0.35800
O 	O 	0.87347 0.86289 0.21381 -0.35500
O 	O 	0.00318 0.84992 0.30118 -0.35700
O 	O 	0.92876 0.02563 0.31041 -0.35100
O 	O 	0.98745 0.96884 0.32608 -0.36500
O 	O 	0.96693 0.82392 0.22768 -0.35500
O 	O 	0.92064 0.89978 0.27463 -0.71900
H 	H 	0.90519 0.87305 0.29369 0.15200
C 	C 	0.23237 0.40596 0.12109 -0.09800
C 	C 	0.26044 0.36908 0.13670 0.15300
C 	C 	0.22204 0.30513 0.15425 -0.08200
C 	C 	0.15573 0.27766 0.15642 0.03100
C 	C 	0.12678 0.30923 0.13829 0.08500
C 	C 	0.16520 0.37237 0.12028 -0.00300
H 	H 	0.24423 0.27933 0.16742 0.09400
C 	C 	0.11875 0.22323 0.18023 0.02600
H 	H 	0.14314 0.39868 0.10735 0.06100
C 	C 	0.11663 0.25122 0.20835 -0.07800
C 	C 	0.08184 0.20068 0.23125 0.15300
C 	C 	0.04886 0.12128 0.22608 -0.08600
C 	C 	0.05195 0.09327 0.19811 -0.00800
C 	C 	0.08697 0.14380 0.17525 0.09100
H 	H 	0.14159 0.31237 0.21231 0.09700
H 	H 	0.02631 0.03217 0.19402 0.07800
Br	Br	0.03545 0.26972 0.13913 -0.18300
Br	Br	0.35177 0.40889 0.13610 -0.21600
Br	Br	0.07816 0.24128 0.26912 -0.17200
Br	Br	0.09015 0.10340 0.13728 -0.17900
C 	C 	0.80802 0.90324 0.18681 -0.08600
C 	C 	0.75698 0.83966 0.17299 0.15300
C 	C 	0.71275 0.84955 0.15595 -0.07800
C 	C 	0.71904 0.92250 0.15266 0.02800
C 	C 	0.77513 0.98695 0.16278 0.08100
C 	C 	0.81977 0.97710 0.17956 -0.02500
H 	H 	0.67085 0.79988 0.14715 0.08900
C 	C 	0.66189 0.92866 0.14446 0.02500
H 	H 	0.86069 0.02662 0.18906 0.08600
C 	C 	0.62174 0.92953 0.16694 -0.08000
C 	C 	0.55650 0.90290 0.16132 0.15000
C 	C 	0.53139 0.87446 0.13316 -0.09200
C 	C 	0.57450 0.89087 0.10957 -0.01600
C 	C 	0.63949 0.91565 0.11519 0.08400
H 	H 	0.63973 0.94400 0.18931 0.09300
H 	H 	0.55613 0.87448 0.08737 0.05100
Br	Br	0.78972 0.08837 0.15525 -0.16300
Br	Br	0.74326 0.73817 0.17953 -0.19500
Br	Br	0.50096 0.89555 0.19326 -0.19800
Br	Br	0.69546 0.92501 0.08311 -0.21800
C 	C 	0.07670 0.84805 0.23068 -0.09200
C 	C 	0.12377 0.86151 0.25242 0.14700
C 	C 	0.15985 0.82400 0.25058 -0.08000
C 	C 	0.15693 0.78251 0.22529 0.02200
C 	C 	0.11284 0.77260 0.20275 0.08600
C 	C 	0.07206 0.80377 0.20588 -0.00500
H 	H 	0.19402 0.83215 0.26784 0.09300
C 	C 	0.20541 0.75795 0.22087 0.02100
H 	H 	0.03690 0.79385 0.18889 0.08100
C 	C 	0.18637 0.67972 0.22127 -0.07700
C 	C 	0.22553 0.65411 0.20817 0.15200
C 	C 	0.28403 0.70717 0.19485 -0.08800
C 	C 	0.30834 0.78538 0.20011 -0.01200
C 	C 	0.26861 0.81131 0.21215 0.08800
H 	H 	0.13914 0.63855 0.22952 0.08400
H 	H 	0.35465 0.82649 0.19103 0.08200
Br	Br	0.10899 0.71884 0.16707 -0.20300
Br	Br	0.14624 0.93788 0.28250 -0.23700
Br	Br	0.19503 0.54629 0.20533 -0.19400
Br	Br	0.29892 0.91945 0.21319 -0.19200
C 	C 	0.71554 0.74325 0.30254 -0.08200
C 	C 	0.65910 0.73545 0.28948 0.15000
C 	C 	0.60065 0.69735 0.30466 -0.08000
C 	C 	0.59768 0.66635 0.33273 0.02400
C 	C 	0.65302 0.66891 0.34481 0.09300
C 	C 	0.71189 0.70822 0.32984 -0.01300
H 	H 	0.55777 0.69381 0.29500 0.09100
C 	C 	0.53737 0.63539 0.34986 0.02600
H 	H 	0.75502 0.71313 0.33977 0.06800
C 	C 	0.48543 0.56405 0.34220 -0.08200
C 	C 	0.42428 0.53984 0.35411 0.15000
C 	C 	0.41538 0.58611 0.37491 -0.08600
C 	C 	0.46790 0.65612 0.38340 -0.01500
C 	C 	0.52852 0.68136 0.37076 0.08800
H 	H 	0.49191 0.52904 0.32584 0.09100
H 	H 	0.46126 0.69184 0.39937 0.06600
Br	Br	0.64921 0.62009 0.38183 -0.20000
Br	Br	0.66123 0.77917 0.25144 -0.19000
Br	Br	0.35281 0.44730 0.33944 -0.18300
Br	Br	0.59791 0.78051 0.38118 -0.19600
C 	C 	0.96407 0.04219 0.36071 -0.09600
C 	C 	0.02497 0.10123 0.36944 0.15500
C 	C 	0.03102 0.14181 0.39534 -0.08000
C 	C 	0.97667 0.12541 0.41247 0.02700
C 	C 	0.91637 0.06367 0.40465 0.08100
C 	C 	0.91025 0.02255 0.37874 0.01100
H 	H 	0.07755 0.18928 0.40128 0.08400
C 	C 	0.98199 0.18130 0.43502 0.03100
H 	H 	0.86346 0.97638 0.37232 0.05400
C 	C 	0.96296 0.23503 0.42743 -0.08700
C 	C 	0.99765 0.30991 0.43808 0.15400
C 	C 	0.05187 0.33077 0.45595 -0.10500
C 	C 	0.05938 0.27256 0.46940 -0.00700
C 	C 	0.02428 0.19740 0.45894 0.07800
H 	H 	0.92661 0.22132 0.41065 0.09400
H 	H 	0.09761 0.28703 0.48524 0.07000
Br	Br	0.84208 0.03491 0.42902 -0.17800
Br	Br	0.09971 0.13182 0.34505 -0.18100
Br	Br	0.97644 0.38539 0.42469 -0.22900
Br	Br	0.04019 0.11973 0.47489 -0.17700
C 	C 	0.98795 0.72207 0.29666 -0.07900
C 	C 	0.97757 0.66430 0.27591 0.14300
C 	C 	0.00766 0.61988 0.27978 -0.08100
C 	C 	0.04859 0.63283 0.30383 0.02000
C 	C 	0.06020 0.69154 0.32398 0.08600
C 	C 	0.02788 0.73323 0.32105 -0.01700
H 	H 	0.99921 0.57533 0.26402 0.09400
C 	C 	0.07729 0.58300 0.30866 0.02100
H 	H 	0.03626 0.77710 0.33712 0.08100
C 	C 	0.14241 0.61088 0.30182 -0.07400
C 	C 	0.17773 0.58326 0.31720 0.14900
C 	C 	0.14795 0.52876 0.33986 -0.08700
C 	C 	0.08063 0.49015 0.34204 -0.00800
C 	C 	0.04507 0.51692 0.32635 0.08800
H 	H 	0.16693 0.65903 0.28688 0.08100
H 	H 	0.05664 0.44455 0.35809 0.07700
Br	Br	0.12394 0.72001 0.35429 -0.22000
Br	Br	0.92349 0.64498 0.24204 -0.21500
Br	Br	0.26801 0.62678 0.30948 -0.19400
Br	Br	0.95327 0.46513 0.33038 -0.19500
C 	C 	0.53779 0.06980 0.48494 -0.07400
C 	C 	0.47581 0.02717 0.49682 0.04000
C 	C 	0.45216 0.06223 0.51632 -0.00900
C 	C 	0.49285 0.13719 0.52590 0.00500
C 	C 	0.55648 0.17787 0.51565 -0.08400
C 	C 	0.57795 0.14518 0.49400 0.06300
C 	C 	0.43740 0.94499 0.48982 -0.00500
S 	S 	0.37173 0.01320 0.52854 0.02000
H 	H 	0.47577 0.16285 0.54209 0.04400
S 	S 	0.65574 0.19741 0.47877 -0.00400
H 	H 	0.55523 0.04366 0.46914 0.07100
C 	C 	0.39900 0.92055 0.46430 0.00300
C 	C 	0.36788 0.84327 0.45650 -0.00200
C 	C 	0.37431 0.78964 0.47401 -0.08200
C 	C 	0.41191 0.81385 0.49984 0.05500
C 	C 	0.44307 0.89134 0.50763 -0.05900
S 	S 	0.38973 0.98628 0.44190 -0.03400
H 	H 	0.33865 0.82476 0.43674 0.04700
S 	S 	0.42305 0.74871 0.52172 -0.01300
H 	H 	0.47287 0.91024 0.52723 0.06000
H 	H 	0.69835 0.18815 0.49615 0.05300
H 	H 	0.43837 0.01668 0.42143 0.06300
H 	H 	0.47506 0.74419 0.51140 0.05100
H 	H 	0.33415 0.02630 0.50919 0.04800
C 	C 	0.04733 0.67927 0.47097 -0.07000
C 	C 	0.99696 0.62269 0.45433 0.02600
C 	C 	0.01121 0.60315 0.42666 -0.00100
C 	C 	0.07416 0.62004 0.42048 0.01700
C 	C 	0.12299 0.66119 0.44101 -0.08500
C 	C 	0.11091 0.69929 0.46413 0.06500
C 	C 	0.93669 0.56869 0.46946 0.02100
S 	S 	0.95065 0.55668 0.40012 0.02200
H 	H 	0.08372 0.59422 0.40152 0.06700
S 	S 	0.17398 0.76442 0.48670 -0.01500
H 	H 	0.03680 0.70030 0.49108 0.07300
C 	C 	0.93500 0.51287 0.48913 -0.00300
C 	C 	0.87772 0.46300 0.50365 0.01000
C 	C 	0.82146 0.46628 0.49806 -0.09100
C 	C 	0.82183 0.51637 0.47595 0.06400
C 	C 	0.87988 0.56962 0.46288 -0.06800
S 	S 	0.00410 0.50463 0.49563 0.01500
H 	H 	0.87752 0.42356 0.52011 0.05100
S 	S 	0.74959 0.50955 0.46310 -0.01800
H 	H 	0.88055 0.61040 0.44694 0.06800
H 	H 	0.18423 0.72524 0.50892 0.04800
H 	H 	0.03900 0.55269 0.51811 0.04700
H 	H 	0.73673 0.55897 0.47869 0.05100
H 	H 	0.91393 0.48069 0.40702 0.06500
C 	C 	0.40098 0.39996 0.58440 -0.05900
C 	C 	0.36510 0.33305 0.56789 0.01900
C 	C 	0.37768 0.27196 0.57144 0.00600
C 	C 	0.43415 0.28482 0.58566 0.00100
C 	C 	0.47925 0.35927 0.59446 -0.07900
C 	C 	0.45763 0.41248 0.59834 0.06100
C 	C 	0.32973 0.33641 0.54171 0.02000
S 	S 	0.32544 0.18123 0.55668 -0.00300
H 	H 	0.44738 0.24031 0.58575 0.04700
S 	S 	0.50140 0.49496 0.61981 0.00500
H 	H 	0.38803 0.44470 0.58418 0.06200
C 	C 	0.27020 0.33422 0.54482 -0.00600
C 	C 	0.24628 0.35879 0.52151 0.00600
C 	C 	0.28147 0.38576 0.49514 -0.07800
C 	C 	0.33724 0.37985 0.49092 0.05500
C 	C 	0.36102 0.35500 0.51417 -0.06400
S 	S 	0.22609 0.30254 0.57796 0.02000
H 	H 	0.20205 0.36080 0.52443 0.05100
S 	S 	0.37940 0.40702 0.45715 -0.01000
H 	H 	0.40594 0.35452 0.51143 0.06200
H 	H 	0.54034 0.55463 0.60170 0.06700
H 	H 	0.24614 0.36296 0.59700 0.05100
H 	H 	0.42204 0.48404 0.45741 0.04900
H 	H 	0.28093 0.13766 0.57767 0.06400
C 	C 	0.03232 0.23850 0.66811 -0.07800
C 	C 	0.98610 0.21564 0.64541 0.15200
C 	C 	0.95863 0.26122 0.63830 -0.07500
C 	C 	0.97848 0.33103 0.65277 0.02700
C 	C 	0.02851 0.35695 0.67361 0.08600
C 	C 	0.05598 0.31131 0.68075 -0.01600
H 	H 	0.92173 0.24232 0.62148 0.08900
C 	C 	0.94529 0.37537 0.64644 0.02500
H 	H 	0.09327 0.33068 0.69738 0.06600
C 	C 	0.89763 0.37065 0.66586 -0.07400
C 	C 	0.85735 0.39998 0.65764 0.14900
C 	C 	0.86172 0.42941 0.62877 -0.09000
C 	C 	0.91487 0.44307 0.61109 -0.01400
C 	C 	0.95623 0.41575 0.61969 0.08600
H 	H 	0.89160 0.34377 0.68729 0.09300
H 	H 	0.92166 0.47063 0.58976 0.07000
Br	Br	0.05892 0.45352 0.69304 -0.17900
Br	Br	0.96350 0.12596 0.62230 -0.18600
Br	Br	0.80352 0.40801 0.68732 -0.16800
Br	Br	0.02626 0.43217 0.59422 -0.21200
C 	C 	0.29351 0.13024 0.69117 -0.08400
C 	C 	0.33335 0.18274 0.66929 0.15300
C 	C 	0.39107 0.18527 0.66137 -0.07900
C 	C 	0.40698 0.13179 0.67297 0.02400
C 	C 	0.36776 0.08015 0.69489 0.08800
C 	C 	0.31330 0.08233 0.70488 -0.01200
H 	H 	0.42257 0.22716 0.64535 0.08000
C 	C 	0.46588 0.13215 0.66255 0.02900
H 	H 	0.28353 0.04259 0.72192 0.06600
C 	C 	0.51930 0.15905 0.68128 -0.08000
C 	C 	0.58075 0.18663 0.66923 0.15400
C 	C 	0.58919 0.19581 0.63849 -0.09000
C 	C 	0.53570 0.15242 0.62047 -0.02000
C 	C 	0.47362 0.12103 0.63243 0.08200
H 	H 	0.51371 0.16375 0.70476 0.10500
H 	H 	0.54186 0.15224 0.59677 0.06000
Br	Br	0.38391 0.00112 0.70930 -0.16700
Br	Br	0.30909 0.24831 0.64855 -0.21000
Br	Br	0.65347 0.22259 0.69486 -0.17300
Br	Br	0.40035 0.06726 0.60731 -0.22000
C 	C 	0.96726 0.89667 0.65081 -0.07700
C 	C 	0.93270 0.81632 0.64952 0.14700
C 	C 	0.90172 0.78016 0.62349 -0.07700
C 	C 	0.90407 0.82338 0.59866 0.02000
C 	C 	0.94086 0.90368 0.59949 0.09700
C 	C 	0.97281 0.94001 0.62553 -0.03400
H 	H 	0.87364 0.71822 0.62283 0.08900
C 	C 	0.86127 0.78390 0.57367 0.03300
H 	H 	0.00190 0.00177 0.62611 0.09400
C 	C 	0.79825 0.77181 0.57493 -0.08600
C 	C 	0.74687 0.69985 0.56772 0.15200
C 	C 	0.75954 0.64147 0.55886 -0.10300
C 	C 	0.82184 0.66187 0.54925 -0.01000
C 	C 	0.87314 0.73380 0.55652 0.08300
H 	H 	0.78886 0.81388 0.58537 0.09300
H 	H 	0.83141 0.61903 0.53964 0.06700
Br	Br	0.94859 0.96422 0.56529 -0.17900
Br	Br	0.92587 0.75489 0.68336 -0.16800
Br	Br	0.66042 0.67979 0.57319 -0.22200
Br	Br	0.95948 0.75753 0.54752 -0.20600
C 	C 	0.94593 0.54301 0.00865 -0.06600
C 	C 	0.98971 0.51670 0.00523 0.02200
C 	C 	0.97755 0.45874 0.98456 0.00100
C 	C 	0.92101 0.42716 0.96770 0.00800
C 	C 	0.87554 0.45179 0.97173 -0.07400
C 	C 	0.88919 0.51149 0.99241 0.06900
C 	C 	0.04697 0.54872 0.02441 0.01700
S 	S 	0.03230 0.42475 0.97977 -0.00300
H 	H 	0.91183 0.38226 0.95200 0.06500
S 	S 	0.83690 0.54866 0.99835 -0.03100
H 	H 	0.95592 0.58825 0.02436 0.06500
C 	C 	0.10465 0.61342 0.01535 -0.00700
C 	C 	0.15546 0.64988 0.03532 0.00200
C 	C 	0.14952 0.62223 0.06429 -0.09000
C 	C 	0.09027 0.56125 0.07390 0.05800
C 	C 	0.03997 0.52361 0.05380 -0.06700
S 	S 	0.11382 0.64916 0.97908 -0.00500
H 	H 	0.20080 0.69735 0.02789 0.04900
S 	S 	0.07783 0.53371 0.11133 0.01700
H 	H 	0.99456 0.47624 0.06123 0.06900
H 	H 	0.86185 0.61904 0.98510 0.05800
H 	H 	0.09196 0.70071 0.97778 0.05500
H 	H 	0.09436 0.47831 0.11627 0.05800
H 	H 	0.07689 0.46824 0.95880 0.05000
C 	C 	0.47694 0.92590 0.99368 -0.06100
C 	C 	0.44399 0.96689 0.98966 -0.00400
C 	C 	0.37847 0.93279 0.99755 0.00400
C 	C 	0.34924 0.86271 0.01273 -0.00300
C 	C 	0.38474 0.82612 0.01981 -0.07900
C 	C 	0.44714 0.85511 0.00822 0.05200
C 	C 	0.47868 0.04515 0.97701 0.03800
S 	S 	0.33296 0.97751 0.98893 -0.02800
H 	H 	0.30030 0.83926 0.02074 0.04700
S 	S 	0.48898 0.80421 0.01254 -0.03000
H 	H 	0.52628 0.94999 0.98615 0.05700
C 	C 	0.50359 0.11024 0.99537 -0.00700
C 	C 	0.54528 0.18291 0.98358 0.00500
C 	C 	0.56487 0.19111 0.95387 -0.06700
C 	C 	0.53723 0.12589 0.93530 0.06000
C 	C 	0.49384 0.05406 0.94693 -0.06900
S 	S 	0.48603 0.10104 0.03343 -0.00300
H 	H 	0.56574 0.23227 0.99802 0.05600
S 	S 	0.55771 0.13233 0.89771 -0.00000
H 	H 	0.47391 0.00422 0.93272 0.07200
H 	H 	0.52846 0.83247 0.03653 0.04100
H 	H 	0.52905 0.08638 0.04802 0.05200
H 	H 	0.50451 0.11586 0.88116 0.05800
H 	H 	0.33674 0.02435 0.01171 0.06000
C 	C 	0.52345 0.55119 0.02263 -0.06600
C 	C 	0.56598 0.62281 0.01034 0.01500
C 	C 	0.57655 0.69001 0.02492 -0.00100
C 	C 	0.54091 0.68438 0.05029 -0.00200
C 	C 	0.49080 0.61302 0.05949 -0.07500
C 	C 	0.48583 0.54601 0.04713 0.05400
C 	C 	0.59860 0.62623 0.98220 0.01700
S 	S 	0.63110 0.78110 0.01068 -0.00800
H 	H 	0.54763 0.73600 0.06106 0.04300
S 	S 	0.42928 0.45526 0.06078 0.01300
H 	H 	0.51783 0.49946 0.01239 0.06000
C 	C 	0.66186 0.63856 0.98216 -0.00300
C 	C 	0.68599 0.62155 0.95698 -0.00800
C 	C 	0.64541 0.58374 0.93301 -0.08600
C 	C 	0.58554 0.58118 0.93147 0.06000
C 	C 	0.56251 0.60306 0.95602 -0.06600
S 	S 	0.70867 0.66634 0.01453 -0.01400
H 	H 	0.73374 0.62897 0.95770 0.04800
S 	S 	0.53693 0.54473 0.89996 -0.00800
H 	H 	0.51466 0.59651 0.95555 0.06200
H 	H 	0.37113 0.43186 0.04742 0.05300
H 	H 	0.69593 0.60242 0.03057 0.04400
H 	H 	0.49913 0.46699 0.90277 0.06000
H 	H 	0.68930 0.80856 0.02448 0.05800
C 	C 	0.84232 0.39095 0.82797 -0.10200
C 	C 	0.84187 0.32053 0.83010 0.15900
C 	C 	0.88542 0.30843 0.81362 -0.08500
C 	C 	0.92700 0.36364 0.79344 0.03000
C 	C 	0.92428 0.43168 0.78953 0.08500
C 	C 	0.88265 0.44560 0.80714 0.00200
H 	H 	0.88563 0.25474 0.81583 0.09400
C 	C 	0.96720 0.34480 0.77418 0.02900
H 	H 	0.88283 0.49952 0.80510 0.07300
C 	C 	0.93715 0.29293 0.75121 -0.08000
C 	C 	0.96060 0.24492 0.74196 0.14200
C 	C 	0.02010 0.25579 0.75302 -0.09100
C 	C 	0.05540 0.31671 0.77252 -0.00900
C 	C 	0.02860 0.36013 0.78358 0.08900
H 	H 	0.89106 0.28325 0.74310 0.09100
H 	H 	0.10173 0.32723 0.78058 0.07900
Br	Br	0.97668 0.50580 0.76035 -0.16100
Br	Br	0.77972 0.23823 0.85416 -0.24600
Br	Br	0.90662 0.16038 0.71683 -0.22500
Br	Br	0.07446 0.43654 0.81294 -0.18300
C 	C 	0.26968 0.13273 0.77601 -0.08800
C 	C 	0.32691 0.20162 0.76933 0.14000
C 	C 	0.38525 0.21584 0.78196 -0.08000
C 	C 	0.38758 0.16319 0.80159 0.02400
C 	C 	0.33119 0.09412 0.80782 0.08800
C 	C 	0.27271 0.07933 0.79522 -0.01400
H 	H 	0.42866 0.26927 0.77723 0.08800
C 	C 	0.44651 0.18646 0.81908 0.02400
H 	H 	0.22948 0.02628 0.80053 0.08000
C 	C 	0.45218 0.22033 0.84669 -0.08200
C 	C 	0.51137 0.25658 0.86112 0.13800
C 	C 	0.56604 0.25934 0.84789 -0.08800
C 	C 	0.55901 0.21920 0.82158 -0.01300
C 	C 	0.49942 0.18271 0.80713 0.08600
H 	H 	0.41101 0.22114 0.85642 0.08800
H 	H 	0.60046 0.21970 0.81155 0.08100
Br	Br	0.33311 0.01926 0.83362 -0.18800
Br	Br	0.32740 0.27803 0.74351 -0.22400
Br	Br	0.51679 0.30320 0.89872 -0.24200
Br	Br	0.49130 0.12881 0.77112 -0.18200
C 	C 	0.98098 0.90567 0.79752 -0.07500
C 	C 	0.93305 0.82830 0.79983 0.14500
C 	C 	0.91798 0.79203 0.82738 -0.07300
C 	C 	0.94886 0.83274 0.85297 0.01600
C 	C 	0.99640 0.91032 0.85078 0.10100
C 	C 	0.01241 0.94638 0.82305 -0.04100
H 	H 	0.88106 0.73243 0.82902 0.08100
C 	C 	0.92821 0.79413 0.88198 0.03000
H 	H 	0.04935 0.00595 0.82137 0.08800
C 	C 	0.95982 0.75693 0.89381 -0.08300
C 	C 	0.92660 0.69372 0.91262 0.14900
C 	C 	0.86066 0.66538 0.91825 -0.10500
C 	C 	0.83385 0.71200 0.91126 -0.01600
C 	C 	0.86784 0.77688 0.89348 0.08100
H 	H 	0.00805 0.77289 0.88649 0.08900
H 	H 	0.78376 0.69222 0.91582 0.06300
Br	Br	0.03914 0.96805 0.88533 -0.20700
Br	Br	0.88556 0.77209 0.76580 -0.17300
Br	Br	0.96898 0.63997 0.92688 -0.23100
Br	Br	0.82775 0.83557 0.88202 -0.19600
