data_crystal

_cell_length_a 15.57739
_cell_length_b 15.99624
_cell_length_c 42.57903
_cell_angle_alpha 90.74863
_cell_angle_beta  90.93174
_cell_angle_gamma 110.84369

_symmetry_space_group_name_	'P 1'
_symmetry_space_group_name_H-M	'P 1'

loop_
_symmetry_equiv_pos_as_xyz
  x,y,z

loop_
_atom_site_label
_atom_site_type_symbol
_atom_site_fract_x
_atom_site_fract_y
_atom_site_fract_z
_atom_site_charge
O 	O 	0.02733 0.99197 0.78553 -0.67600
O 	O 	0.10947 0.19358 0.78770 -0.36700
H 	H 	0.05074 0.97356 0.80500 0.16000
H 	H 	0.10281 0.99771 0.71509 0.17100
C 	C 	0.02560 0.19539 0.78552 0.27000
C 	C 	0.07632 0.76501 0.72685 0.26000
O 	O 	0.08462 0.70581 0.34911 -0.36000
C 	C 	0.09933 0.78335 0.33578 0.25900
O 	O 	0.08061 0.79207 0.17627 -0.34200
O 	O 	0.03431 0.62704 0.13913 -0.35600
O 	O 	0.03758 0.61701 0.20688 -0.35200
O 	O 	0.01790 0.48433 0.15163 -0.37900
C 	C 	0.01202 0.54251 0.13095 0.24900
C 	C 	0.04020 0.54057 0.21768 0.29600
Ni	Ni	0.05905 0.06144 0.28374 1.06100
O 	O 	0.08104 0.25673 0.25864 -0.38000
C 	C 	0.08024 0.08342 0.21619 0.32000
C 	C 	0.10641 0.25935 0.28847 0.27700
O 	O 	0.01546 0.11438 0.20889 -0.39300
O 	O 	0.11311 0.18795 0.30233 -0.41200
C 	C 	0.10386 0.94513 0.18812 0.04600
C 	C 	0.08804 0.00801 0.19921 -0.14100
C 	C 	0.12148 0.33920 0.30681 -0.05600
C 	C 	0.02593 0.79971 0.31894 -0.04100
C 	C 	0.01530 0.53245 0.48860 0.01100
C 	C 	0.09888 0.55176 0.50386 0.11700
C 	C 	0.10611 0.50495 0.53074 -0.08800
C 	C 	0.03243 0.55780 0.45870 -0.05900
Ni	Ni	0.00081 0.89162 0.75412 1.10100
O 	O 	0.00830 0.79478 0.72421 -0.38100
C 	C 	0.02702 0.43689 0.54105 0.00900
H 	H 	0.05948 0.44590 0.59037 0.06300
C 	C 	0.06158 0.67632 0.71497 -0.03700
O 	O 	0.12435 0.10726 0.24295 -0.40700
C 	C 	0.03631 0.60378 0.70198 -0.07300
O 	O 	0.11383 0.52098 0.21363 -0.41200
Ni	Ni	0.13296 0.08987 0.76406 1.09000
O 	O 	0.21841 0.07957 0.79954 -0.38100
O 	O 	0.11585 0.98265 0.73669 -0.69400
O 	O 	0.15330 0.81239 0.74243 -0.39500
Ni	Ni	0.22382 0.94979 0.73475 1.07900
Ni	Ni	0.19475 0.66771 0.36025 1.09800
O 	O 	0.13676 0.55212 0.33438 -0.37100
O 	O 	0.18420 0.83798 0.33147 -0.41100
H 	H 	0.23089 0.77647 0.40765 0.15200
C 	C 	0.17432 0.60133 0.42694 0.24400
C 	C 	0.14900 0.47954 0.34409 0.27800
O 	O 	0.13050 0.60414 0.40019 -0.35800
O 	O 	0.17454 0.47481 0.37333 -0.40700
Ni	Ni	0.12989 0.68778 0.17344 1.10200
O 	O 	0.21464 0.74778 0.13736 -0.70000
O 	O 	0.22647 0.89442 0.18157 -0.38800
O 	O 	0.21120 0.61361 0.16929 -0.69900
O 	O 	0.17688 0.45536 0.12572 -0.40000
Ni	Ni	0.14079 0.48605 0.17016 1.07300
H 	H 	0.18012 0.75243 0.11814 0.15900
C 	C 	0.13762 0.87638 0.17809 0.23700
C 	C 	0.13303 0.40439 0.32320 -0.05800
O 	O 	0.17363 0.59301 0.48518 -0.18900
C 	C 	0.12705 0.59344 0.45686 0.04100
H 	H 	0.17164 0.51992 0.54292 0.06800
O 	O 	0.29613 0.07349 0.71767 -0.42300
O 	O 	0.24546 0.17754 0.74246 -0.36800
O 	O 	0.27372 0.97605 0.78009 -0.36000
C 	C 	0.28742 0.05253 0.79493 0.24100
Ni	Ni	0.30362 0.54665 0.38935 1.07100
O 	O 	0.25668 0.59586 0.42707 -0.39300
O 	O 	0.26008 0.78034 0.38699 -0.70800
Ni	Ni	0.27326 0.89635 0.36906 1.06900
H 	H 	0.25398 0.62775 0.18763 0.16200
C 	C 	0.26315 0.47473 0.11814 0.24400
O 	O 	0.23734 0.35624 0.07658 -0.19500
H 	H 	0.23284 0.29057 0.01714 0.06100
C 	C 	0.31298 0.15321 0.73139 0.27200
Ni	Ni	0.28156 0.66287 0.13005 1.10000
C 	C 	0.29710 0.30583 0.03017 -0.08800
C 	C 	0.29098 0.40820 0.10132 0.04100
O 	O 	0.31941 0.65804 0.36724 -0.69100
Ni	Ni	0.30764 0.86251 0.14869 1.06900
C 	C 	0.30376 0.33050 0.06214 0.11000
H 	H 	0.34891 0.65810 0.34681 0.16100
O 	O 	0.32280 0.55606 0.12267 -0.36700
H 	H 	0.33720 0.31097 0.96632 0.04900
O 	O 	0.34980 0.97130 0.40573 -0.37600
O 	O 	0.35200 0.80910 0.18602 -0.41100
H 	H 	0.37676 0.17900 0.50855 0.07200
C 	C 	0.37764 0.30916 0.01502 0.00500
C 	C 	0.36904 0.09159 0.81424 -0.03500
O 	O 	0.35094 0.72282 0.09204 -0.37300
C 	C 	0.01055 0.41608 0.57133 -0.05900
Ni	Ni	0.38397 0.77346 0.39334 1.09900
O 	O 	0.38421 0.93030 0.33994 -0.38800
C 	C 	0.40061 0.94461 0.42573 0.24400
C 	C 	0.40726 0.76506 0.18233 0.28800
O 	O 	0.40136 0.71746 0.15655 -0.36200
C 	C 	0.40328 0.12854 0.51638 -0.12800
O 	O 	0.40580 0.06848 0.46335 -0.22800
C 	C 	0.39801 0.22173 0.72353 -0.03000
C 	C 	0.38873 0.36266 0.07725 0.01100
C 	C 	0.38082 0.41195 0.10196 -0.06500
C 	C 	0.40590 0.10921 0.54842 0.04600
C 	C 	0.39019 0.31706 0.98394 -0.05600
H 	H 	0.04165 0.44267 0.08082 0.05900
C 	C 	0.39678 0.80973 0.09265 0.25000
O 	O 	0.41004 0.85641 0.11955 -0.37900
C 	C 	0.42790 0.99315 0.45597 0.05900
H 	H 	0.41659 0.49892 0.52543 0.06700
C 	C 	0.41902 0.16952 0.57192 -0.07400
H 	H 	0.42393 0.23819 0.56872 0.06400
H 	H 	0.38719 0.75238 0.02830 0.05700
O 	O 	0.43762 0.58728 0.40752 -0.37900
C 	C 	0.43438 0.07960 0.49473 0.16400
O 	O 	0.43317 0.60447 0.47435 -0.19200
O 	O 	0.44468 0.82438 0.35242 -0.38700
O 	O 	0.44638 0.89388 0.41609 -0.36900
C 	C 	0.43699 0.12677 0.83052 -0.05400
H 	H 	0.43767 0.46532 0.11310 0.06300
C 	C 	0.44142 0.04634 0.55871 0.03900
C 	C 	0.45538 0.90445 0.34262 0.31300
C 	C 	0.45608 0.84789 0.06614 0.04500
C 	C 	0.44977 0.80089 0.03835 -0.05200
C 	C 	0.46577 0.96179 0.48065 0.01900
H 	H 	0.46450 0.89385 0.48258 0.03600
C 	C 	0.46297 0.34926 0.02932 0.11700
C 	C 	0.46175 0.14125 0.59610 0.04600
C 	C 	0.47028 0.01744 0.50500 -0.11900
C 	C 	0.47074 0.99615 0.53685 0.03800
C 	C 	0.47008 0.37920 0.06064 -0.09100
C 	C 	0.47873 0.66560 0.42133 0.26000
C 	C 	0.47216 0.26869 0.71439 -0.05400
C 	C 	0.47996 0.55570 0.52342 -0.08900
O 	O 	0.47621 0.06151 0.58940 -0.20600
C 	C 	0.48283 0.36228 0.98030 0.04200
C 	C 	0.48712 0.62237 0.50158 0.12100
O 	O 	0.00201 0.93440 0.26393 -0.39100
C 	C 	0.49044 0.67109 0.45548 0.02500
H 	H 	0.47847 0.79703 0.97516 0.06700
C 	C 	0.49089 0.79432 0.20037 -0.04600
O 	O 	0.49361 0.73873 0.40551 -0.36100
H 	H 	0.49805 0.94617 0.54459 0.04300
H 	H 	0.50062 0.47782 0.57995 0.06500
O 	O 	0.50844 0.29558 0.93249 -0.37000
O 	O 	0.50898 0.18552 0.87978 -0.36600
C 	C 	0.99605 0.25181 0.80574 -0.06200
C 	C 	0.98383 0.46503 0.07898 -0.07200
C 	C 	0.95612 0.51046 0.10229 0.04600
C 	C 	0.95071 0.48509 0.05206 0.01200
H 	H 	0.98227 0.39975 0.01761 0.06400
C 	C 	0.90738 0.38815 0.22161 -0.04100
C 	C 	0.95728 0.46530 0.22094 -0.04800
C 	C 	0.97719 0.82584 0.30241 -0.06000
H 	H 	0.98604 0.52870 0.43897 0.06300
C 	C 	0.57050 0.72589 0.47023 -0.05000
C 	C 	0.94049 0.43925 0.02319 -0.08800
O 	O 	0.89856 0.55474 0.09132 -0.18300
C 	C 	0.57523 0.91882 0.04092 0.11000
C 	C 	0.59537 0.92095 0.97585 0.10700
C 	C 	0.52950 0.84731 0.98962 -0.08200
C 	C 	0.52517 0.84547 0.02247 0.01300
O 	O 	0.53562 0.92377 0.06964 -0.18000
O 	O 	0.58505 0.94421 0.94506 -0.15800
Ni	Ni	0.61093 0.27021 0.90916 1.09900
O 	O 	0.63581 0.37569 0.87994 -0.70200
Ni	Ni	0.76348 0.39193 0.86508 1.09900
O 	O 	0.60004 0.43911 0.94424 -0.39700
Ni	Ni	0.63454 0.48725 0.89905 1.06900
O 	O 	0.61815 0.08086 0.89465 -0.40000
O 	O 	0.76711 0.54435 0.91535 -0.38500
O 	O 	0.79991 0.51513 0.84397 -0.36100
O 	O 	0.72828 0.27486 0.88930 -0.70100
O 	O 	0.59557 0.16291 0.93618 -0.36800
O 	O 	0.87831 0.37389 0.84704 -0.35100
O 	O 	0.78888 0.23582 0.82843 -0.41600
Ni	Ni	0.70292 0.16695 0.86353 1.06100
H 	H 	0.59249 0.35912 0.86169 0.15900
H 	H 	0.77458 0.27754 0.90587 0.15600
C 	C 	0.81331 0.49494 0.92483 0.25400
O 	O 	0.59871 0.18346 0.83815 -0.41300
C 	C 	0.52725 0.36827 0.94995 0.24300
C 	C 	0.75551 0.57217 0.84653 0.28800
C 	C 	0.51786 0.16910 0.84990 0.29000
C 	C 	0.87071 0.29564 0.83462 0.26100
C 	C 	0.62146 0.09830 0.92526 0.24800
O 	O 	0.84063 0.44873 0.90436 -0.35800
O 	O 	0.67102 0.54716 0.85721 -0.40800
Ni	Ni	0.83716 0.36149 0.67270 1.09700
O 	O 	0.71955 0.28405 0.64904 -0.70000
Ni	Ni	0.65838 0.37380 0.64087 1.10000
O 	O 	0.87721 0.25344 0.68143 -0.35400
O 	O 	0.74002 0.17875 0.70332 -0.40600
O 	O 	0.90562 0.37662 0.63055 -0.35700
Ni	Ni	0.63728 0.18715 0.67373 1.06600
O 	O 	0.97655 0.53574 0.65325 -0.40600
O 	O 	0.62239 0.27437 0.70637 -0.41600
O 	O 	0.54939 0.28997 0.61529 -0.36600
O 	O 	0.77261 0.45109 0.66677 -0.69000
O 	O 	0.95336 0.44715 0.69535 -0.36800
O 	O 	0.62169 0.47788 0.62660 -0.35900
O 	O 	0.75554 0.59586 0.62385 -0.37300
Ni	Ni	0.85503 0.54847 0.64118 1.07200
H 	H 	0.73274 0.25965 0.62896 0.15500
H 	H 	0.75779 0.47305 0.68707 0.16800
C 	C 	0.56162 0.31134 0.70161 0.30000
O 	O 	0.83451 0.45989 0.60479 -0.40900
C 	C 	0.81829 0.17917 0.69264 0.25400
C 	C 	0.51668 0.20353 0.62076 0.24300
C 	C 	0.87764 0.40272 0.60412 0.24700
C 	C 	0.67764 0.54381 0.61078 0.25700
C 	C 	0.99632 0.52478 0.68251 0.29400
O 	O 	0.57086 0.36508 0.67789 -0.35800
O 	O 	0.51848 0.17437 0.64960 -0.39600
O 	O 	0.96119 0.12798 0.77174 -0.42000
Ni	Ni	0.91106 0.00731 0.79466 1.04800
O 	O 	0.83409 0.95053 0.75554 -0.38600
O 	O 	0.87986 0.80641 0.77147 -0.36600
C 	C 	0.87013 0.96832 0.72795 0.34800
C 	C 	0.85878 0.80928 0.80129 0.27800
O 	O 	0.93355 0.93680 0.72013 -0.38000
O 	O 	0.86381 0.88547 0.81548 -0.39200
Ni	Ni	0.82855 0.97259 0.25737 1.11400
O 	O 	0.94030 0.07506 0.27620 -0.70500
Ni	Ni	0.95693 0.16738 0.24329 1.09900
O 	O 	0.85806 0.87497 0.28236 -0.35300
O 	O 	0.75055 0.99209 0.29311 -0.33000
O 	O 	0.66213 0.98177 0.21025 -0.38800
O 	O 	0.83860 0.07287 0.22863 -0.71800
O 	O 	0.71080 0.88084 0.23773 -0.35700
O 	O 	0.93568 0.25582 0.21306 -0.39400
O 	O 	0.80091 0.24548 0.23579 -0.40400
Ni	Ni	0.73178 0.10766 0.22731 1.06300
H 	H 	0.92239 0.09812 0.29575 0.14700
H 	H 	0.84605 0.05254 0.20713 0.15800
O 	O 	0.68826 0.08857 0.27254 -0.39200
C 	C 	0.94165 0.87253 0.27998 0.27100
C 	C 	0.67915 0.01608 0.28821 0.19800
C 	C 	0.87529 0.29238 0.22045 0.26500
C 	C 	0.64443 0.90399 0.22439 0.27700
C 	C 	0.56227 0.83533 0.21365 -0.02800
C 	C 	0.60086 0.98037 0.30792 0.02400
C 	C 	0.53435 0.94799 0.32395 -0.06000
C 	C 	0.94272 0.41954 0.52628 0.11800
C 	C 	0.93632 0.46392 0.49862 -0.08800
O 	O 	0.86882 0.38610 0.54608 -0.19600
C 	C 	0.91649 0.38823 0.57437 0.04500
H 	H 	0.87087 0.44928 0.48644 0.06700
C 	C 	0.63958 0.63285 0.53877 0.11600
C 	C 	0.64656 0.70115 0.51759 -0.08400
C 	C 	0.56821 0.69501 0.49949 0.00800
C 	C 	0.55900 0.56050 0.54053 0.01400
O 	O 	0.69747 0.64519 0.56500 -0.18800
C 	C 	0.64202 0.57426 0.58286 0.04800
C 	C 	0.55997 0.52341 0.56835 -0.06200
H 	H 	0.71028 0.75745 0.51551 0.07000
H 	H 	0.63289 0.76289 0.45813 0.05900
C 	C 	0.84750 0.10687 0.70124 -0.01500
C 	C 	0.86142 0.04288 0.71155 -0.11900
C 	C 	0.87862 0.45121 0.00088 0.11100
C 	C 	0.89915 0.53583 0.05949 0.11500
C 	C 	0.83578 0.54650 0.03768 -0.08600
C 	C 	0.82523 0.50121 0.00858 0.01500
O 	O 	0.88960 0.44355 0.96877 -0.19500
C 	C 	0.84030 0.49596 0.95806 0.03700
C 	C 	0.80110 0.52961 0.98153 -0.05500
H 	H 	0.79605 0.58806 0.04317 0.07100
H 	H 	0.77643 0.58463 0.97916 0.06000
C 	C 	0.63768 0.99451 0.02704 -0.05100
C 	C 	0.65088 0.99145 0.99455 0.04900
C 	C 	0.63677 0.03545 0.94731 0.00800
C 	C 	0.67711 0.06380 0.97649 -0.10200
H 	H 	0.66908 0.05604 0.04059 0.03300
H 	H 	0.69761 0.13206 0.98542 0.05600
O 	O 	0.53397 0.38420 0.00842 -0.19200
H 	H 	0.53615 0.41951 0.07098 0.06900
C 	C 	0.94793 0.28210 0.82045 -0.04900
C 	C 	0.79163 0.65635 0.83100 -0.03700
C 	C 	0.82175 0.72675 0.81776 -0.03900
