data_crystal

_cell_length_a 24.83714
_cell_length_b 21.88595
_cell_length_c 31.96546
_cell_angle_alpha 104.02681
_cell_angle_beta  115.93224
_cell_angle_gamma 111.52129

_symmetry_space_group_name_	'P 1'
_symmetry_space_group_name_H-M	'P 1'

loop_
_symmetry_equiv_pos_as_xyz
  x,y,z

loop_
_atom_site_label
_atom_site_type_symbol
_atom_site_fract_x
_atom_site_fract_y
_atom_site_fract_z
_atom_site_charge
C 	C 	0.77117 0.51157 0.97476 -0.00200
C 	C 	0.81952 0.51559 0.02144 -0.02500
C 	C 	0.79810 0.45717 0.03283 -0.05800
C 	C 	0.72858 0.39375 0.99741 0.05600
C 	C 	0.68017 0.38946 0.95031 -0.06600
C 	C 	0.70125 0.44855 0.93946 -0.02600
N 	N 	0.70864 0.33218 0.00855 -0.13200
C 	C 	0.51505 0.25234 0.99682 -0.00400
C 	C 	0.53418 0.20205 0.98309 -0.01800
C 	C 	0.59784 0.22772 0.98744 -0.08500
C 	C 	0.64173 0.30399 0.00341 0.09100
C 	C 	0.62453 0.35477 0.02111 -0.07500
C 	C 	0.56078 0.32876 0.01643 -0.01300
C 	C 	0.75637 0.19193 0.93505 0.02400
C 	C 	0.79953 0.23623 0.99040 -0.06700
C 	C 	0.78107 0.27871 0.01450 -0.03100
C 	C 	0.71987 0.27827 0.98365 0.04900
C 	C 	0.67534 0.23215 0.92809 -0.05500
C 	C 	0.69368 0.18915 0.90397 -0.03700
H 	H 	0.87373 0.56397 0.04881 0.03100
H 	H 	0.83575 0.46058 0.06888 0.04100
H 	H 	0.62605 0.34113 0.92283 0.04500
H 	H 	0.66331 0.44546 0.90368 0.04200
H 	H 	0.49987 0.14309 0.96928 0.03700
H 	H 	0.61313 0.18851 0.97905 0.05400
H 	H 	0.66068 0.41445 0.03852 0.05000
H 	H 	0.54719 0.36819 0.02855 0.03500
H 	H 	0.84737 0.23750 0.01472 0.04800
H 	H 	0.81558 0.31405 0.05716 0.03600
H 	H 	0.62693 0.22981 0.90384 0.04400
H 	H 	0.65939 0.15399 0.86128 0.04600
C 	C 	0.74712 0.50052 0.46342 0.01200
C 	C 	0.79317 0.50369 0.51057 -0.02700
C 	C 	0.77001 0.44393 0.52044 -0.06900
C 	C 	0.70104 0.37998 0.48305 0.07500
C 	C 	0.65459 0.37696 0.43584 -0.06700
C 	C 	0.67757 0.43716 0.42626 -0.03200
N 	N 	0.68019 0.31640 0.49212 -0.14200
C 	C 	0.48694 0.23002 0.48102 0.01300
C 	C 	0.50780 0.18165 0.46721 -0.03200
C 	C 	0.57092 0.20939 0.47077 -0.06600
C 	C 	0.61259 0.28588 0.48600 0.07300
C 	C 	0.59344 0.33475 0.50329 -0.06700
C 	C 	0.53056 0.30674 0.49993 -0.02500
C 	C 	0.72741 0.17446 0.41924 0.00900
C 	C 	0.77055 0.21918 0.47456 -0.03200
C 	C 	0.75312 0.26348 0.49829 -0.06900
C 	C 	0.69278 0.26414 0.46712 0.07600
C 	C 	0.64861 0.21823 0.41155 -0.06800
C 	C 	0.66596 0.17347 0.38779 -0.02500
H 	H 	0.84710 0.55226 0.53935 0.03700
H 	H 	0.80608 0.44653 0.55671 0.04400
H 	H 	0.60073 0.32849 0.40704 0.04800
H 	H 	0.64146 0.43457 0.38997 0.03700
H 	H 	0.47511 0.12248 0.45376 0.03700
H 	H 	0.58770 0.17164 0.46252 0.05000
H 	H 	0.62775 0.39459 0.51992 0.04800
H 	H 	0.51569 0.34477 0.51210 0.04000
H 	H 	0.81769 0.21950 0.49912 0.03300
H 	H 	0.78732 0.29866 0.54096 0.04400
H 	H 	0.60085 0.21682 0.38709 0.04900
H 	H 	0.63190 0.13835 0.34510 0.04400
C 	C 	0.33497 0.54615 0.98150 -0.01300
C 	C 	0.37911 0.60104 0.03501 0.00200
C 	C 	0.42106 0.67636 0.04996 -0.08100
C 	C 	0.41924 0.69766 0.01164 0.09900
C 	C 	0.37563 0.64236 0.95796 -0.09200
C 	C 	0.33367 0.56702 0.94307 -0.01500
N 	N 	0.45992 0.77635 0.02756 -0.14700
C 	C 	0.61360 0.84516 0.99300 -0.00400
C 	C 	0.58649 0.88913 0.00135 0.00100
C 	C 	0.53582 0.86652 0.01219 -0.07600
C 	C 	0.50940 0.79768 0.01284 0.07700
C 	C 	0.54076 0.75646 0.00781 -0.05500
C 	C 	0.59111 0.77924 0.99674 -0.03700
C 	C 	0.32012 0.85430 0.99516 -0.01700
C 	C 	0.36685 0.86982 0.04701 0.00300
C 	C 	0.41365 0.84529 0.05756 -0.08200
C 	C 	0.41452 0.80551 0.01650 0.10100
C 	C 	0.36885 0.79171 0.96468 -0.09500
C 	C 	0.32134 0.81525 0.95405 -0.01300
H 	H 	0.38025 0.58541 0.06492 0.03900
H 	H 	0.45434 0.71847 0.09126 0.05300
H 	H 	0.37530 0.65760 0.92814 0.05200
H 	H 	0.30018 0.52490 0.90173 0.03600
H 	H 	0.60493 0.94111 0.99972 0.01600
H 	H 	0.51827 0.90322 0.02105 0.05500
H 	H 	0.52726 0.70763 0.01344 0.05000
H 	H 	0.61338 0.74607 0.99177 0.03700
H 	H 	0.36610 0.89981 0.07894 0.03600
H 	H 	0.44866 0.85624 0.09753 0.05400
H 	H 	0.37057 0.76336 0.93292 0.05200
H 	H 	0.28547 0.80318 0.91389 0.03300
C 	C 	0.31581 0.54184 0.47669 0.01300
C 	C 	0.35140 0.59901 0.52811 -0.03200
C 	C 	0.39344 0.67389 0.54218 -0.06600
C 	C 	0.40054 0.69253 0.50514 0.07600
C 	C 	0.36740 0.63491 0.45424 -0.06800
C 	C 	0.32471 0.56000 0.44000 -0.02400
N 	N 	0.43895 0.77060 0.51904 -0.14200
C 	C 	0.59309 0.83328 0.48539 0.01200
C 	C 	0.52716 0.82343 0.45193 -0.03200
C 	C 	0.47576 0.80175 0.46214 -0.06900
C 	C 	0.49046 0.79115 0.50677 0.07600
C 	C 	0.55660 0.80151 0.54026 -0.06800
C 	C 	0.60747 0.82198 0.52948 -0.02700
C 	C 	0.31568 0.86877 0.49167 0.01300
C 	C 	0.38478 0.90821 0.53836 -0.03100
C 	C 	0.42525 0.87590 0.54677 -0.06700
C 	C 	0.39712 0.80401 0.50861 0.07700
C 	C 	0.32810 0.76512 0.46131 -0.06800
C 	C 	0.28754 0.79711 0.45327 -0.02200
H 	H 	0.34552 0.58547 0.55690 0.03800
H 	H 	0.41936 0.71772 0.58157 0.04800
H 	H 	0.37270 0.64830 0.42526 0.04900
H 	H 	0.29752 0.51629 0.40022 0.04600
H 	H 	0.51538 0.83154 0.41758 0.03800
H 	H 	0.42443 0.79212 0.43500 0.05000
H 	H 	0.56835 0.79332 0.57454 0.04500
H 	H 	0.65778 0.82832 0.55509 0.03700
H 	H 	0.40709 0.96378 0.56808 0.03500
H 	H 	0.47836 0.90645 0.58310 0.04700
H 	H 	0.30636 0.71100 0.43046 0.05100
H 	H 	0.23428 0.76636 0.41700 0.04700
Zn	Zn	0.15900 0.16222 0.99809 1.18600
Zn	Zn	0.04415 0.08640 0.87784 1.20800
O 	O 	0.05115 0.97076 0.80244 -0.48300
O 	O 	0.01141 0.04990 0.80121 -0.41700
O 	O 	0.05740 0.88274 0.87771 -0.48300
C 	C 	0.24780 0.14745 0.97031 0.31100
O 	O 	0.98456 0.98284 0.86146 -0.91000
C 	C 	0.15777 0.25314 0.94417 0.34300
O 	O 	0.24855 0.17742 0.01156 -0.45100
O 	O 	0.18664 0.09962 0.92363 -0.34500
O 	O 	0.06368 0.10120 0.94972 -0.76600
O 	O 	0.11185 0.98663 0.95481 -0.45700
O 	O 	0.11210 0.19162 0.89735 -0.43000
O 	O 	0.16974 0.25110 0.98806 -0.46200
Zn	Zn	0.86367 0.85562 0.88664 1.17500
Zn	Zn	0.99360 0.91493 0.99071 1.17400
Zn	Zn	0.01113 0.99853 0.93150 1.22400
C 	C 	0.87493 0.76016 0.93898 0.34300
C 	C 	0.82192 0.91105 0.94742 0.33500
O 	O 	0.90893 0.01098 0.90664 -0.47000
Zn	Zn	0.98752 0.04723 0.01852 1.19100
O 	O 	0.94386 0.80994 0.97402 -0.47800
O 	O 	0.83698 0.76350 0.89608 -0.46900
O 	O 	0.80137 0.87886 0.89826 -0.48600
O 	O 	0.88681 0.93479 0.98637 -0.48600
C 	C 	0.02794 0.00380 0.09969 0.33100
O 	O 	0.95746 0.89592 0.91438 -0.81500
C 	C 	0.90346 0.06067 0.93449 0.35100
O 	O 	0.02647 0.94942 0.06875 -0.41000
O 	O 	0.02716 0.05822 0.08925 -0.44400
O 	O 	0.93877 0.08823 0.98596 -0.51200
O 	O 	0.03854 0.01593 0.00150 -0.85500
Zn	Zn	0.01595 0.92467 0.83860 1.19300
C 	C 	0.02706 0.00624 0.77946 0.30100
C 	C 	0.10703 0.92567 0.92883 0.33300
H 	H 	0.09058 0.04697 0.02934 0.15800
H 	H 	0.93302 0.96071 0.83581 0.14700
Zn	Zn	0.13820 0.15437 0.48907 1.18800
Zn	Zn	0.02663 0.07837 0.37004 1.21300
O 	O 	0.03491 0.96011 0.29627 -0.46700
O 	O 	0.99659 0.04054 0.29399 -0.48700
O 	O 	0.04655 0.88292 0.37707 -0.48000
C 	C 	0.22480 0.12958 0.46192 0.33100
O 	O 	0.96689 0.97537 0.35407 -0.89900
C 	C 	0.13803 0.24561 0.43498 0.33900
O 	O 	0.22641 0.16439 0.50254 -0.46300
O 	O 	0.16360 0.08440 0.41494 -0.35200
O 	O 	0.04244 0.09494 0.44140 -0.75000
O 	O 	0.09741 0.98868 0.45138 -0.44700
O 	O 	0.09499 0.18303 0.38899 -0.44000
O 	O 	0.15264 0.24451 0.47958 -0.45500
Zn	Zn	0.84762 0.84327 0.37891 1.17600
Zn	Zn	0.97918 0.90797 0.48390 1.17700
Zn	Zn	0.99209 0.99207 0.42400 1.19900
C 	C 	0.86602 0.74970 0.43177 0.34000
C 	C 	0.80089 0.88819 0.43881 0.33300
O 	O 	0.88720 0.99996 0.39701 -0.48000
Zn	Zn	0.96197 0.03213 0.50885 1.18900
O 	O 	0.93414 0.80250 0.46770 -0.47200
O 	O 	0.82707 0.75120 0.38820 -0.45700
O 	O 	0.78138 0.85874 0.38980 -0.47000
O 	O 	0.86689 0.91588 0.47811 -0.49400
C 	C 	0.00932 0.99333 0.59170 0.29000
O 	O 	0.94209 0.88922 0.40756 -0.81000
C 	C 	0.87655 0.04422 0.42413 0.36000
O 	O 	0.01167 0.94171 0.56194 -0.40600
O 	O 	0.00423 0.04562 0.58019 -0.43400
O 	O 	0.90612 0.06598 0.47472 -0.51300
O 	O 	0.01830 0.00911 0.49381 -0.85500
Zn	Zn	0.99968 0.91712 0.33350 1.16800
C 	C 	0.01522 0.99869 0.27433 0.33600
C 	C 	0.09872 0.93194 0.42693 0.34200
H 	H 	0.07001 0.04295 0.52241 0.15800
H 	H 	0.91540 0.95276 0.32784 0.15300
C 	C 	0.97269 0.01197 0.69512 -0.06400
C 	C 	0.02115 0.00026 0.73047 -0.01200
C 	C 	0.06375 0.98275 0.71877 -0.03900
C 	C 	0.05889 0.97870 0.67275 -0.00400
C 	C 	0.01158 0.99223 0.63821 -0.04300
C 	C 	0.96787 0.00787 0.64927 -0.03000
H 	H 	0.93851 0.02399 0.70305 0.04300
H 	H 	0.10142 0.97359 0.74569 0.04300
H 	H 	0.09291 0.96663 0.66461 0.03700
H 	H 	0.93017 0.01699 0.62229 0.03700
C 	C 	0.01214 0.93873 0.15170 0.02200
C 	C 	0.03194 0.00456 0.14734 -0.06300
C 	C 	0.04852 0.06918 0.18605 -0.00400
C 	C 	0.04278 0.06715 0.22731 0.00100
C 	C 	0.02097 0.00075 0.23070 -0.07000
C 	C 	0.00658 0.93683 0.19310 0.02800
H 	H 	0.99955 0.88856 0.12244 0.01500
H 	H 	0.06499 0.12078 0.18382 0.04700
H 	H 	0.05568 0.11735 0.25681 0.05100
H 	H 	0.99005 0.88533 0.19547 -0.01400
C 	C 	0.26629 0.46344 0.46057 -0.00500
C 	C 	0.28136 0.40816 0.44822 0.09200
C 	C 	0.23527 0.33486 0.43525 -0.02200
C 	C 	0.17660 0.31733 0.43739 -0.12600
C 	C 	0.15989 0.37159 0.44756 0.17100
C 	C 	0.20536 0.44465 0.45990 -0.10600
H 	H 	0.24707 0.29258 0.42588 0.04900
H 	H 	0.19349 0.48688 0.46936 0.06900
O 	O 	0.33887 0.42460 0.44576 -0.19000
O 	O 	0.10207 0.35498 0.44959 -0.21500
C 	C 	0.39698 0.44323 0.49486 -0.02300
H 	H 	0.41224 0.49276 0.52823 0.03500
H 	H 	0.44358 0.45834 0.49327 0.04100
H 	H 	0.38573 0.39464 0.50261 0.03900
C 	C 	0.04274 0.32999 0.39885 0.03800
H 	H 	0.05211 0.37389 0.38633 0.03400
H 	H 	0.99652 0.31775 0.40060 -0.00100
H 	H 	0.02796 0.27714 0.36870 0.03800
C 	C 	0.64498 0.84999 0.47201 -0.00800
C 	C 	0.71328 0.91658 0.50693 0.09000
C 	C 	0.76385 0.92845 0.49574 -0.02800
C 	C 	0.74633 0.87538 0.44928 -0.13300
C 	C 	0.67793 0.80855 0.41454 0.17000
C 	C 	0.62699 0.79772 0.42512 -0.10900
H 	H 	0.81662 0.97919 0.52317 0.03200
H 	H 	0.57429 0.74685 0.39788 0.06500
O 	O 	0.73259 0.96738 0.55420 -0.21300
O 	O 	0.66021 0.75425 0.36952 -0.20400
C 	C 	0.71952 0.02250 0.54630 0.01100
H 	H 	0.75402 0.05573 0.53667 0.02700
H 	H 	0.73294 0.06192 0.58380 0.03300
H 	H 	0.66229 0.99766 0.51508 0.01900
C 	C 	0.67205 0.70047 0.38145 -0.02200
H 	H 	0.72750 0.72650 0.41632 0.04200
H 	H 	0.66416 0.66064 0.34703 0.04500
H 	H 	0.63323 0.66766 0.38817 0.03500
C 	C 	0.27244 0.90225 0.48268 -0.00100
C 	C 	0.25082 0.91736 0.43979 0.09000
C 	C 	0.19645 0.93153 0.42357 -0.01300
C 	C 	0.16516 0.93320 0.45089 -0.13500
C 	C 	0.19303 0.92759 0.49773 0.17700
C 	C 	0.24552 0.91039 0.51278 -0.10700
H 	H 	0.17680 0.93845 0.38851 0.04400
H 	H 	0.26291 0.90014 0.54641 0.06600
O 	O 	0.27655 0.90902 0.40964 -0.18500
O 	O 	0.16303 0.92984 0.52523 -0.23300
C 	C 	0.33406 0.97988 0.42813 -0.06100
H 	H 	0.31533 0.01714 0.41919 0.06000
H 	H 	0.35826 0.97240 0.40680 0.04500
H 	H 	0.37660 0.00675 0.47132 0.05800
C 	C 	0.20395 0.00341 0.56733 -0.00100
H 	H 	0.25829 0.01830 0.59724 0.03500
H 	H 	0.17762 0.00630 0.58757 0.02400
H 	H 	0.20729 0.04537 0.55300 0.02500
C 	C 	0.28814 0.46718 0.96560 0.00600
C 	C 	0.31737 0.42522 0.98002 0.07500
C 	C 	0.27392 0.35470 0.97221 -0.01500
C 	C 	0.20098 0.32435 0.94815 -0.12600
C 	C 	0.17126 0.36522 0.93214 0.17200
C 	C 	0.21465 0.43552 0.93950 -0.11000
H 	H 	0.29720 0.32393 0.98540 0.05000
H 	H 	0.19163 0.46680 0.92703 0.06900
O 	O 	0.38974 0.45591 0.00606 -0.17200
O 	O 	0.09906 0.33501 0.90696 -0.19800
C 	C 	0.40256 0.43277 0.96809 -0.04000
H 	H 	0.37644 0.37079 0.94777 0.04600
H 	H 	0.46074 0.45815 0.98889 0.03800
H 	H 	0.38539 0.45252 0.93856 0.04100
C 	C 	0.08772 0.36142 0.94527 -0.02700
H 	H 	0.10374 0.34186 0.97506 0.04900
H 	H 	0.02995 0.33842 0.92489 0.06000
H 	H 	0.11571 0.42364 0.96530 0.04000
C 	C 	0.76752 0.90121 0.95787 -0.14400
C 	C 	0.78753 0.94417 0.00892 0.16500
C 	C 	0.73697 0.92511 0.02026 -0.09800
C 	C 	0.66551 0.86793 0.98006 -0.01800
C 	C 	0.64412 0.83061 0.92787 0.09100
C 	C 	0.69534 0.84556 0.91733 -0.02500
H 	H 	0.75340 0.95500 0.06031 0.05600
H 	H 	0.67883 0.81310 0.87770 0.05000
O 	O 	0.85741 0.00204 0.04867 -0.21000
O 	O 	0.57361 0.77489 0.88779 -0.19500
C 	C 	0.86449 0.06979 0.05054 -0.02600
H 	H 	0.84713 0.06818 0.01152 0.04300
H 	H 	0.92159 0.11545 0.07952 0.02400
H 	H 	0.83457 0.08408 0.06444 0.03500
C 	C 	0.54004 0.80716 0.86193 -0.02300
H 	H 	0.54086 0.85051 0.88945 0.03500
H 	H 	0.48337 0.76253 0.82982 0.04000
H 	H 	0.56434 0.83115 0.84309 0.03700
C 	C 	0.16358 0.91190 0.95487 -0.13900
C 	C 	0.14557 0.83998 0.94926 0.17200
C 	C 	0.19729 0.82187 0.96291 -0.11500
C 	C 	0.26728 0.87543 0.98331 0.00900
C 	C 	0.28594 0.94816 0.99069 0.06300
C 	C 	0.23454 0.96678 0.97827 -0.03500
H 	H 	0.18265 0.76575 0.95691 0.06900
H 	H 	0.24904 0.02266 0.98399 0.05400
O 	O 	0.07577 0.78510 0.92584 -0.20500
O 	O 	0.35546 0.00236 0.01281 -0.16100
C 	C 	0.06582 0.78646 0.96614 -0.01400
H 	H 	0.10073 0.77379 0.99396 0.03600
H 	H 	0.00988 0.74217 0.94737 0.05700
H 	H 	0.07451 0.84104 0.98824 0.01100
C 	C 	0.36200 0.00457 0.97143 -0.02300
H 	H 	0.34886 0.94987 0.94490 0.02800
H 	H 	0.41823 0.04663 0.98921 0.04800
H 	H 	0.32851 0.02234 0.94793 0.04200
C 	C 	0.74693 0.12839 0.39496 -0.00100
C 	C 	0.71750 0.05320 0.38415 0.08700
C 	C 	0.75541 0.01923 0.38317 -0.00100
C 	C 	0.82422 0.06167 0.39669 -0.15000
C 	C 	0.84815 0.13232 0.39910 0.17400
C 	C 	0.80772 0.16418 0.39608 -0.11200
H 	H 	0.73432 0.96243 0.37711 0.03700
H 	H 	0.82760 0.21999 0.40023 0.06200
O 	O 	0.64967 0.01151 0.37096 -0.19100
O 	O 	0.90989 0.16899 0.40256 -0.22600
C 	C 	0.65493 0.00772 0.41591 0.00900
H 	H 	0.60038 0.97648 0.40553 0.02600
H 	H 	0.68415 0.06427 0.44988 0.03100
H 	H 	0.68006 0.97641 0.42780 0.02500
C 	C 	0.96618 0.22420 0.45579 -0.07600
H 	H 	0.96055 0.27257 0.46699 0.03800
H 	H 	0.01697 0.24515 0.45965 0.08100
H 	H 	0.97078 0.20200 0.48421 0.02600
C 	C 	0.77230 0.56316 0.45270 -0.00800
C 	C 	0.79357 0.63502 0.48637 0.09100
C 	C 	0.82728 0.69622 0.48066 -0.02800
C 	C 	0.83432 0.68539 0.43877 -0.13400
C 	C 	0.81047 0.61313 0.40368 0.17100
C 	C 	0.77872 0.55212 0.41041 -0.11000
H 	H 	0.84584 0.75189 0.50783 0.04200
H 	H 	0.76069 0.49656 0.38353 0.06300
O 	O 	0.78528 0.64624 0.52704 -0.20200
O 	O 	0.81422 0.60130 0.36082 -0.21300
C 	C 	0.71961 0.64035 0.50833 -0.02000
H 	H 	0.71862 0.68461 0.49723 0.03200
H 	H 	0.71257 0.64867 0.54079 0.03200
H 	H 	0.67397 0.58370 0.47436 0.03500
C 	C 	0.87827 0.60505 0.37560 -0.01600
H 	H 	0.92575 0.66097 0.40935 0.03200
H 	H 	0.88172 0.59666 0.34142 0.02800
H 	H 	0.87942 0.55978 0.38530 0.02800
C 	C 	0.29130 0.15320 0.46635 -0.12400
C 	C 	0.34543 0.14867 0.50348 0.16500
C 	C 	0.40844 0.17137 0.50670 -0.10900
C 	C 	0.41827 0.20010 0.47412 -0.00900
C 	C 	0.36293 0.20170 0.43565 0.09300
C 	C 	0.30040 0.17970 0.43269 -0.02700
H 	H 	0.44964 0.16671 0.53457 0.06200
H 	H 	0.25864 0.18277 0.40387 0.05200
O 	O 	0.33316 0.11341 0.53175 -0.20500
O 	O 	0.37211 0.23012 0.40345 -0.19100
C 	C 	0.36787 0.16847 0.58403 -0.01800
H 	H 	0.42677 0.19828 0.60597 0.03300
H 	H 	0.35313 0.14023 0.60524 0.03500
H 	H 	0.35129 0.20937 0.58509 0.03900
C 	C 	0.34492 0.17011 0.35567 -0.02500
H 	H 	0.37341 0.14046 0.36275 0.04000
H 	H 	0.35339 0.19306 0.33019 0.04300
H 	H 	0.28653 0.13000 0.33338 0.04300
C 	C 	0.77594 0.14630 0.91041 -0.00800
C 	C 	0.74566 0.07057 0.89835 0.08800
C 	C 	0.78228 0.03574 0.89538 -0.00500
C 	C 	0.85036 0.07761 0.90758 -0.15100
C 	C 	0.87340 0.14760 0.90908 0.17500
C 	C 	0.83650 0.18231 0.91120 -0.11200
H 	H 	0.76068 0.97858 0.88842 0.03300
H 	H 	0.85845 0.23960 0.91822 0.06000
O 	O 	0.67818 0.02934 0.88589 -0.19600
O 	O 	0.93790 0.18703 0.91680 -0.23800
C 	C 	0.68430 0.02579 0.93112 0.01400
H 	H 	0.70884 0.99388 0.94236 0.01900
H 	H 	0.63006 0.99536 0.92139 0.02000
H 	H 	0.71461 0.08234 0.96541 0.02800
C 	C 	0.92581 0.16594 0.86669 -0.01200
H 	H 	0.90202 0.10468 0.84438 0.00700
H 	H 	0.97779 0.19509 0.87272 0.01200
H 	H 	0.89194 0.18316 0.84289 0.02900
C 	C 	0.84172 0.69546 0.94506 -0.13700
C 	C 	0.84054 0.70609 0.98980 0.16400
C 	C 	0.81704 0.64554 0.99903 -0.12400
C 	C 	0.79357 0.57413 0.96349 -0.00100
C 	C 	0.79431 0.56343 0.91847 0.08600
C 	C 	0.81622 0.62374 0.90860 -0.02100
H 	H 	0.81755 0.65425 0.03409 0.06700
H 	H 	0.81618 0.61529 0.87374 0.04000
O 	O 	0.86849 0.77718 0.02714 -0.21200
O 	O 	0.76985 0.49299 0.88249 -0.19600
C 	C 	0.81243 0.78856 0.01566 -0.00600
H 	H 	0.78355 0.78154 0.97491 0.03400
H 	H 	0.83546 0.84695 0.04401 0.04300
H 	H 	0.77466 0.75064 0.02108 0.03200
C 	C 	0.82836 0.48529 0.89632 -0.02000
H 	H 	0.86748 0.52624 0.89333 0.02700
H 	H 	0.80850 0.42835 0.86787 0.03600
H 	H 	0.85493 0.49062 0.93670 0.03100
C 	C 	0.31497 0.17136 0.97559 -0.13300
C 	C 	0.32490 0.19446 0.94062 0.16400
C 	C 	0.39130 0.22290 0.94891 -0.10700
C 	C 	0.44657 0.22490 0.98999 -0.01600
C 	C 	0.43697 0.20270 0.02527 0.10200
C 	C 	0.37088 0.17502 0.01743 -0.01400
H 	H 	0.39968 0.24307 0.92314 0.06100
H 	H 	0.36322 0.15658 0.04405 0.05300
O 	O 	0.27245 0.19753 0.90225 -0.20300
O 	O 	0.49053 0.20265 0.06507 -0.18800
C 	C 	0.23633 0.13517 0.85263 -0.02300
H 	H 	0.27118 0.14029 0.83893 0.03700
H 	H 	0.18995 0.13381 0.82305 0.05300
H 	H 	0.21538 0.08108 0.85326 0.05200
C 	C 	0.53028 0.27056 0.11216 -0.02400
H 	H 	0.55509 0.31997 0.10751 0.03900
H 	H 	0.57417 0.27112 0.14377 0.04300
H 	H 	0.49708 0.27554 0.12581 0.03800
