data_crystal

_cell_length_a 25.78467
_cell_length_b 26.72535
_cell_length_c 33.85661
_cell_angle_alpha 95.50180
_cell_angle_beta  95.50186
_cell_angle_gamma 125.83385

_symmetry_space_group_name_	'P 1'
_symmetry_space_group_name_H-M	'P 1'

loop_
_symmetry_equiv_pos_as_xyz
  x,y,z

loop_
_atom_site_label
_atom_site_type_symbol
_atom_site_fract_x
_atom_site_fract_y
_atom_site_fract_z
_atom_site_charge
C 	C 	0.95505 0.01748 0.99131 0.11600
N 	N 	0.01396 0.04039 0.98137 -0.12400
C 	C 	0.03500 0.00414 0.97932 0.13900
N 	N 	0.99517 0.94370 0.98456 -0.13200
C 	C 	0.93576 0.92037 0.99379 0.13600
N 	N 	0.91691 0.95815 0.99862 -0.12100
C 	C 	0.94926 0.00276 0.47182 0.11600
N 	N 	0.01409 0.04127 0.47166 -0.12200
C 	C 	0.04921 0.01846 0.47338 0.12700
N 	N 	0.01935 0.95690 0.47459 -0.11700
C 	C 	0.95484 0.91846 0.47575 0.12600
N 	N 	0.91984 0.94163 0.47473 -0.12000
Cu	Cu	0.64027 0.25157 0.99492 0.92800
Cu	Cu	0.68322 0.24483 0.90805 0.88100
Cu	Cu	0.65172 0.34156 0.94153 0.91500
Cu	Cu	0.60753 0.34608 0.02016 0.89800
C 	C 	0.63223 0.27920 0.07747 0.29300
O 	O 	0.54291 0.19174 0.99265 -0.35200
C 	C 	0.67894 0.32955 0.86444 0.29300
O 	O 	0.67020 0.34387 0.99773 -0.63400
O 	O 	0.62621 0.25437 0.93666 -0.63100
O 	O 	0.70625 0.23426 0.99706 -0.36100
O 	O 	0.67262 0.17967 0.93265 -0.40900
O 	O 	0.62134 0.32098 0.07169 -0.37000
O 	O 	0.68357 0.42786 0.94883 -0.36600
C 	C 	0.66738 0.45277 0.97590 0.28900
C 	C 	0.50440 0.20696 0.98140 0.28300
O 	O 	0.52934 0.26435 0.97604 -0.37600
O 	O 	0.62011 0.41697 0.99542 -0.36900
O 	O 	0.66025 0.26502 0.05261 -0.35600
C 	C 	0.70193 0.19257 0.97002 0.29400
O 	O 	0.64236 0.33783 0.88404 -0.36500
O 	O 	0.71728 0.31871 0.88361 -0.41700
H 	H 	0.71583 0.37810 0.01089 0.16800
H 	H 	0.58025 0.22284 0.92298 0.17100
Cu	Cu	0.75562 0.34591 0.45227 0.93100
Cu	Cu	0.77448 0.31757 0.54299 0.87800
Cu	Cu	0.66718 0.32503 0.51275 0.90200
Cu	Cu	0.63078 0.34039 0.43049 0.90000
C 	C 	0.68983 0.31094 0.36986 0.29200
O 	O 	0.79094 0.43532 0.44692 -0.34800
C 	C 	0.73503 0.37194 0.59780 0.29300
O 	O 	0.65666 0.29702 0.45628 -0.63900
O 	O 	0.76096 0.36622 0.51079 -0.63900
O 	O 	0.80226 0.30709 0.45474 -0.35600
O 	O 	0.74782 0.24986 0.50143 -0.42400
O 	O 	0.66648 0.34184 0.38062 -0.37500
O 	O 	0.57457 0.27935 0.51169 -0.36800
C 	C 	0.53252 0.27498 0.48321 0.29500
C 	C 	0.76570 0.46212 0.46205 0.28300
O 	O 	0.70730 0.42733 0.47094 -0.38000
O 	O 	0.55158 0.30888 0.45445 -0.37800
O 	O 	0.73426 0.31396 0.39523 -0.34800
C 	C 	0.78226 0.25920 0.47308 0.29000
O 	O 	0.67885 0.34060 0.57215 -0.37600
O 	O 	0.78213 0.36833 0.59028 -0.40300
H 	H 	0.62758 0.25078 0.44734 0.17600
H 	H 	0.78952 0.41168 0.52251 0.18100
C 	C 	0.77057 0.43567 0.71354 0.00300
C 	C 	0.78851 0.43084 0.75254 -0.05000
C 	C 	0.74211 0.40790 0.77761 0.02100
C 	C 	0.67893 0.38882 0.76324 0.00400
C 	C 	0.65845 0.38483 0.72250 -0.04900
C 	C 	0.70540 0.40977 0.69774 0.02300
S 	S 	0.80550 0.43460 0.67506 0.04000
C 	C 	0.74225 0.40504 0.63758 -0.06700
C 	C 	0.68944 0.39247 0.65494 -0.01600
S 	S 	0.63022 0.34166 0.79245 0.05200
C 	C 	0.68610 0.34388 0.82373 -0.08200
C 	C 	0.74634 0.38340 0.81210 -0.01400
H 	H 	0.83521 0.44014 0.76196 0.05300
H 	H 	0.60723 0.35948 0.70990 0.05800
H 	H 	0.63978 0.36364 0.63829 0.05800
H 	H 	0.79114 0.39332 0.82740 0.04800
C 	C 	0.70608 0.31359 0.25818 -0.00000
C 	C 	0.72588 0.31519 0.22092 -0.04600
C 	C 	0.68100 0.29989 0.18633 0.02200
C 	C 	0.61821 0.28022 0.18943 0.00400
C 	C 	0.59552 0.26879 0.22585 -0.04900
C 	C 	0.64150 0.28796 0.26070 0.02500
S 	S 	0.74322 0.31676 0.30221 0.05900
C 	C 	0.68020 0.28845 0.32663 -0.06900
C 	C 	0.62657 0.27372 0.29903 -0.01700
S 	S 	0.57288 0.25023 0.14351 0.04700
C 	C 	0.63092 0.26313 0.11769 -0.06300
C 	C 	0.68862 0.29069 0.14603 -0.01500
H 	H 	0.77334 0.32685 0.21886 0.05700
H 	H 	0.54451 0.24538 0.22695 0.05600
H 	H 	0.58038 0.25806 0.30727 0.04400
H 	H 	0.73512 0.30787 0.13768 0.05500
C 	C 	0.93244 0.77444 0.50502 -0.01900
C 	C 	0.87533 0.72548 0.47765 0.01200
C 	C 	0.84056 0.73954 0.45223 -0.02200
C 	C 	0.86624 0.80269 0.45142 -0.00600
C 	C 	0.92334 0.85176 0.47903 -0.00700
C 	C 	0.95371 0.83688 0.50758 -0.01600
C 	C 	0.85219 0.65901 0.47518 0.02600
C 	C 	0.77862 0.68902 0.42682 0.10100
C 	C 	0.00541 0.88540 0.54031 0.12000
C 	C 	0.82267 0.62594 0.50600 -0.03800
C 	C 	0.80197 0.56373 0.50390 0.02300
C 	C 	0.80237 0.53146 0.46845 -0.07600
C 	C 	0.83187 0.56460 0.43749 0.02200
C 	C 	0.85971 0.62911 0.44196 -0.03800
C 	C 	0.81250 0.65552 0.53944 0.10500
C 	C 	0.83091 0.53190 0.40033 0.09300
C 	C 	0.78213 0.53357 0.53859 0.08100
C 	C 	0.89577 0.66468 0.41230 0.10400
C 	C 	0.96995 0.76069 0.52999 0.09800
C 	C 	0.83547 0.81709 0.42115 0.10400
N 	N 	0.76633 0.50953 0.56628 -0.11100
N 	N 	0.80442 0.67918 0.56611 -0.10200
N 	N 	0.83010 0.50582 0.37067 -0.09800
N 	N 	0.92454 0.69313 0.38866 -0.10300
N 	N 	0.72920 0.64865 0.40655 -0.10200
N 	N 	0.81094 0.82858 0.39700 -0.09500
N 	N 	0.04666 0.92401 0.56646 -0.09400
N 	N 	0.99982 0.74965 0.54990 -0.10300
C 	C 	0.86663 0.07746 0.49853 -0.02600
C 	C 	0.85799 0.09409 0.46146 0.01500
C 	C 	0.87096 0.07293 0.42664 -0.02600
C 	C 	0.89660 0.03880 0.42951 0.00100
C 	C 	0.91056 0.02698 0.46732 -0.01400
C 	C 	0.89332 0.04426 0.50153 -0.00500
C 	C 	0.83890 0.13705 0.45966 0.02100
C 	C 	0.85892 0.08722 0.38809 0.10100
C 	C 	0.90450 0.02918 0.53997 0.09600
C 	C 	0.88707 0.20274 0.46938 -0.03300
C 	C 	0.86879 0.24326 0.47190 0.01800
C 	C 	0.80224 0.21813 0.46389 -0.07900
C 	C 	0.75444 0.15270 0.45102 0.02200
C 	C 	0.77267 0.11212 0.44951 -0.03200
C 	C 	0.95539 0.22848 0.47732 0.09000
C 	C 	0.68663 0.12730 0.43901 0.08600
C 	C 	0.91830 0.31059 0.48399 0.07800
C 	C 	0.72333 0.04471 0.43800 0.08800
C 	C 	0.84897 0.09541 0.53367 0.09700
C 	C 	0.90886 0.01598 0.39364 0.08400
N 	N 	0.95781 0.36431 0.49365 -0.10700
N 	N 	0.00987 0.24892 0.48366 -0.09100
N 	N 	0.63255 0.10708 0.42943 -0.10600
N 	N 	0.68402 0.99090 0.42882 -0.08700
N 	N 	0.84928 0.09866 0.35735 -0.10300
N 	N 	0.91866 0.99773 0.36505 -0.08100
N 	N 	0.91346 0.01713 0.57062 -0.10100
N 	N 	0.83485 0.10978 0.56167 -0.10900
C 	C 	0.21596 0.10983 0.44473 -0.02300
C 	C 	0.25671 0.13385 0.48309 0.01400
C 	C 	0.22936 0.12320 0.51829 -0.02300
C 	C 	0.16135 0.08805 0.51510 -0.00300
C 	C 	0.12047 0.06131 0.47670 -0.01300
C 	C 	0.14781 0.07315 0.44153 -0.00400
C 	C 	0.32867 0.17055 0.48640 0.02600
C 	C 	0.27126 0.14808 0.55772 0.10100
C 	C 	0.10576 0.04746 0.40210 0.10000
C 	C 	0.36802 0.23671 0.49233 -0.03800
C 	C 	0.43563 0.27123 0.49375 0.02600
C 	C 	0.46356 0.23948 0.48749 -0.07500
C 	C 	0.42457 0.17343 0.48302 0.02200
C 	C 	0.35727 0.13906 0.48294 -0.03800
C 	C 	0.33874 0.26912 0.49658 0.10500
C 	C 	0.45345 0.14080 0.47758 0.07900
C 	C 	0.47668 0.33938 0.50242 0.09000
C 	C 	0.31725 0.07126 0.47899 0.10300
C 	C 	0.24428 0.12274 0.40863 0.10100
C 	C 	0.13339 0.08025 0.55126 0.10200
N 	N 	0.50944 0.39376 0.50933 -0.09900
N 	N 	0.31529 0.29490 0.49997 -0.10100
N 	N 	0.47652 0.11480 0.47324 -0.10800
N 	N 	0.28525 0.01717 0.47583 -0.10400
N 	N 	0.30476 0.16797 0.58915 -0.10300
N 	N 	0.11104 0.07411 0.58009 -0.09500
N 	N 	0.07217 0.02693 0.37066 -0.09500
N 	N 	0.26696 0.13309 0.37985 -0.10400
C 	C 	0.74838 0.61506 0.95033 -0.03800
C 	C 	0.76564 0.65198 0.98872 0.03000
C 	C 	0.74437 0.62261 0.02221 -0.04100
C 	C 	0.71331 0.55759 0.01842 0.01600
C 	C 	0.69560 0.52040 0.97986 -0.06700
C 	C 	0.70912 0.54912 0.94547 0.02400
C 	C 	0.80751 0.72196 0.99402 0.02000
C 	C 	0.75479 0.65940 0.06056 0.10500
C 	C 	0.68029 0.51095 0.90517 0.09800
C 	C 	0.78216 0.75186 0.97799 -0.02400
C 	C 	0.82433 0.81619 0.97632 -0.00200
C 	C 	0.89025 0.85287 0.99629 -0.00900
C 	C 	0.91332 0.82399 0.01693 -0.00400
C 	C 	0.87339 0.75817 0.01337 -0.03100
C 	C 	0.71281 0.71622 0.96290 0.10400
C 	C 	0.97713 0.86205 0.04285 0.09000
C 	C 	0.80085 0.84349 0.95214 0.10500
C 	C 	0.90036 0.72759 0.02884 0.10000
C 	C 	0.77210 0.64499 0.91602 0.10500
C 	C 	0.70265 0.52977 0.05433 0.07900
N 	N 	0.78207 0.86521 0.93283 -0.09500
N 	N 	0.65746 0.68773 0.95086 -0.09900
N 	N 	0.02805 0.89242 0.06353 -0.08500
N 	N 	0.92182 0.70313 0.04118 -0.10600
N 	N 	0.76316 0.68882 0.09114 -0.10200
N 	N 	0.69422 0.50764 0.08301 -0.11300
N 	N 	0.65734 0.48054 0.87301 -0.09700
N 	N 	0.79105 0.66894 0.88869 -0.10200
C 	C 	0.89476 0.11071 0.02576 -0.02900
C 	C 	0.86166 0.10725 0.98871 0.01900
C 	C 	0.86546 0.08037 0.95219 -0.02500
C 	C 	0.89917 0.05376 0.95289 -0.00600
C 	C 	0.92945 0.05435 0.99009 -0.00600
C 	C 	0.92907 0.08466 0.02640 -0.01100
C 	C 	0.82175 0.13099 0.98813 0.02300
C 	C 	0.83398 0.07949 0.91398 0.09900
C 	C 	0.96380 0.08878 0.06437 0.09800
C 	C 	0.85035 0.19393 0.98473 -0.03700
C 	C 	0.81133 0.21469 0.98006 0.02300
C 	C 	0.74366 0.17257 0.97901 -0.08000
C 	C 	0.71560 0.11046 0.98435 0.02400
C 	C 	0.75465 0.08968 0.98895 -0.03200
C 	C 	0.91979 0.23700 0.98552 0.10300
C 	C 	0.64661 0.06804 0.98510 0.08700
C 	C 	0.84049 0.27899 0.97540 0.06900
C 	C 	0.72584 0.02566 0.99411 0.09100
C 	C 	0.89285 0.14045 0.06316 0.09900
C 	C 	0.90153 0.02449 0.91542 0.09900
N 	N 	0.86371 0.33028 0.97168 -0.11500
N 	N 	0.97521 0.27131 0.98616 -0.10400
N 	N 	0.59155 0.03421 0.98570 -0.09900
N 	N 	0.70294 0.97460 0.99822 -0.08600
N 	N 	0.80882 0.07884 0.88353 -0.10700
N 	N 	0.90344 0.00109 0.88557 -0.10200
N 	N 	0.99154 0.09204 0.09465 -0.10000
N 	N 	0.89128 0.16420 0.09299 -0.10400
C 	C 	0.33183 0.08780 0.99607 -0.01900
C 	C 	0.29749 0.09499 0.96495 0.01300
C 	C 	0.32925 0.12718 0.93439 -0.03200
C 	C 	0.39627 0.15622 0.93686 0.01800
C 	C 	0.43277 0.15847 0.97178 -0.06600
C 	C 	0.39987 0.12110 0.00029 0.00200
C 	C 	0.22991 0.07391 0.96657 0.03000
C 	C 	0.29350 0.13215 0.90121 0.10100
C 	C 	0.43608 0.11870 0.03462 0.09200
C 	C 	0.21992 0.10933 0.99405 -0.02900
C 	C 	0.15621 0.08649 0.99854 0.01300
C 	C 	0.10206 0.03097 0.97287 -0.03700
C 	C 	0.11233 0.99854 0.94295 0.03600
C 	C 	0.17598 0.01818 0.94123 -0.06000
C 	C 	0.27534 0.16914 0.01786 0.09600
C 	C 	0.05762 0.94603 0.91337 0.09800
C 	C 	0.14650 0.11860 0.03065 0.09200
C 	C 	0.18597 0.98066 0.91382 0.12700
C 	C 	0.29731 0.04743 0.02425 0.09100
C 	C 	0.42758 0.18311 0.90340 0.08300
N 	N 	0.13877 0.14422 0.05627 -0.09400
N 	N 	0.31962 0.21684 0.03683 -0.10600
N 	N 	0.01394 0.90413 0.88979 -0.08900
N 	N 	0.19402 0.95076 0.89197 -0.10200
N 	N 	0.26490 0.13608 0.87475 -0.10200
N 	N 	0.45260 0.20458 0.87672 -0.11100
N 	N 	0.46492 0.11673 0.06202 -0.10400
N 	N 	0.26969 0.01520 0.04672 -0.10200
