data_crystal

_cell_length_a 28.82940
_cell_length_b 26.57317
_cell_length_c 32.09719
_cell_angle_alpha 103.68752
_cell_angle_beta  115.76937
_cell_angle_gamma 112.32775

_symmetry_space_group_name_	'P 1'
_symmetry_space_group_name_H-M	'P 1'

loop_
_symmetry_equiv_pos_as_xyz
  x,y,z

loop_
_atom_site_label
_atom_site_type_symbol
_atom_site_fract_x
_atom_site_fract_y
_atom_site_fract_z
_atom_site_charge
C 	C 	0.65115 0.26625 0.87788 0.05300
C 	C 	0.60444 0.24305 0.88519 -0.08900
H 	H 	0.58872 0.19932 0.88591 0.05600
C 	C 	0.64491 0.22815 0.37149 0.05300
C 	C 	0.60139 0.20877 0.38276 -0.08800
H 	H 	0.58504 0.16543 0.38408 0.05600
Zn	Zn	0.16049 0.14962 0.00158 1.18500
Zn	Zn	0.05484 0.10211 0.88975 1.19000
O 	O 	0.02074 0.07668 0.81280 -0.46100
C 	C 	0.21894 0.12027 0.95747 0.32100
C 	C 	0.16213 0.23681 0.95913 0.32900
O 	O 	0.22907 0.15016 0.00253 -0.45900
O 	O 	0.16216 0.08336 0.91451 -0.35900
O 	O 	0.07691 0.10989 0.96176 -0.79400
O 	O 	0.11825 0.18833 0.91138 -0.45800
O 	O 	0.18093 0.23054 0.00190 -0.45900
O 	O 	0.04403 0.03159 0.00630 -0.90100
H 	H 	0.08872 0.05153 0.03294 0.16500
Zn	Zn	0.14926 0.11469 0.48881 1.18500
Zn	Zn	0.04587 0.06060 0.37324 1.19200
O 	O 	0.01391 0.03276 0.29625 -0.45400
C 	C 	0.21620 0.09003 0.45309 0.32400
C 	C 	0.14972 0.19675 0.44108 0.33400
O 	O 	0.22205 0.11972 0.49585 -0.46200
O 	O 	0.16093 0.05032 0.40865 -0.34700
O 	O 	0.06545 0.07064 0.44532 -0.78600
O 	O 	0.10935 0.14651 0.39410 -0.45700
O 	O 	0.16617 0.19307 0.48493 -0.46400
O 	O 	0.03395 0.99335 0.49149 -0.92700
H 	H 	0.07873 0.01517 0.51900 0.17600
H 	H 	0.03629 0.93668 0.63822 0.09000
H 	H 	0.04600 0.97619 0.72127 0.02100
C 	C 	0.04380 0.96986 0.20482 0.02400
H 	H 	0.06342 0.94653 0.22249 0.02700
H 	H 	0.06835 0.06266 0.18218 0.09100
C 	C 	0.18156 0.25605 0.44462 -0.12100
C 	C 	0.19421 0.29697 0.96417 -0.12000
C 	C 	0.72576 0.13382 0.35953 0.02300
C 	C 	0.71014 0.08104 0.36621 -0.04700
C 	C 	0.74724 0.05740 0.37396 -0.02400
C 	C 	0.69616 0.16600 0.36311 -0.01000
C 	C 	0.67178 0.19344 0.36605 -0.02800
H 	H 	0.67107 0.06016 0.36797 0.04500
H 	H 	0.73668 0.01848 0.38176 0.04100
C 	C 	0.36505 0.15128 0.44752 -0.01100
C 	C 	0.39627 0.21240 0.45679 -0.02700
C 	C 	0.44206 0.23248 0.44821 -0.04700
C 	C 	0.45682 0.19154 0.43034 0.02100
C 	C 	0.42711 0.13106 0.42281 -0.04700
C 	C 	0.38129 0.11096 0.43140 -0.02600
C 	C 	0.50030 0.21067 0.41742 -0.01200
C 	C 	0.53674 0.22688 0.40664 -0.03000
C 	C 	0.31282 0.12849 0.44989 0.05200
C 	C 	0.26924 0.11052 0.45214 -0.11100
H 	H 	0.38402 0.24386 0.46935 0.03900
H 	H 	0.46512 0.27942 0.45441 0.04200
H 	H 	0.43861 0.09928 0.40933 0.04400
H 	H 	0.35744 0.06368 0.42428 0.03900
C 	C 	0.74219 0.18086 0.87626 0.02200
C 	C 	0.72426 0.12578 0.87947 -0.04700
C 	C 	0.76244 0.10332 0.88937 -0.02500
C 	C 	0.70928 0.21015 0.87612 -0.01000
C 	C 	0.68197 0.23501 0.87601 -0.02900
H 	H 	0.68209 0.10179 0.87649 0.04400
H 	H 	0.74956 0.06212 0.89401 0.04100
C 	C 	0.36029 0.17154 0.94181 -0.00900
C 	C 	0.41638 0.22925 0.97926 -0.03500
C 	C 	0.46169 0.25012 0.97017 -0.04500
C 	C 	0.45103 0.21335 0.92361 0.01900
C 	C 	0.39565 0.15492 0.88687 -0.04600
C 	C 	0.35036 0.13406 0.89595 -0.02900
C 	C 	0.49629 0.23611 0.91298 -0.01200
C 	C 	0.53408 0.25501 0.90394 -0.03100
C 	C 	0.31097 0.15333 0.94809 0.04900
C 	C 	0.26946 0.13778 0.95308 -0.11100
H 	H 	0.42436 0.25849 0.01480 0.04400
H 	H 	0.50459 0.29518 0.99892 0.04100
H 	H 	0.38729 0.12609 0.85095 0.04200
H 	H 	0.30710 0.08939 0.86682 0.04000
O 	O 	0.94377 0.04825 0.92328 -0.46000
Zn	Zn	0.00807 0.06331 0.03035 1.19500
C 	C 	0.94299 0.08914 0.95513 0.33700
O 	O 	0.04531 0.06679 0.09884 -0.49300
O 	O 	0.97235 0.10543 0.00542 -0.47400
O 	O 	0.93160 0.00554 0.40531 -0.45500
Zn	Zn	0.99406 0.02126 0.51299 1.21300
C 	C 	0.92817 0.04469 0.43603 0.34100
O 	O 	0.02808 0.02394 0.58135 -0.48600
O 	O 	0.95662 0.06125 0.48634 -0.48300
C 	C 	0.80012 0.08656 0.37512 -0.01600
C 	C 	0.81295 0.13634 0.36433 -0.02400
C 	C 	0.77582 0.15995 0.35655 -0.04700
C 	C 	0.84575 0.07203 0.39550 0.05900
C 	C 	0.88327 0.05904 0.41269 -0.12800
H 	H 	0.85341 0.15873 0.36464 0.03800
H 	H 	0.78775 0.20036 0.35079 0.04500
C 	C 	0.81867 0.13589 0.89611 -0.01500
C 	C 	0.83466 0.18875 0.88953 -0.02500
C 	C 	0.79647 0.21120 0.87962 -0.04700
C 	C 	0.86303 0.11977 0.91624 0.05700
C 	C 	0.89959 0.10558 0.93310 -0.12700
H 	H 	0.87784 0.21389 0.89426 0.03800
H 	H 	0.81035 0.25355 0.87673 0.04500
C 	C 	0.57945 0.27726 0.89335 0.05300
C 	C 	0.60080 0.33448 0.89369 -0.08900
C 	C 	0.64742 0.35757 0.88620 0.05300
C 	C 	0.67218 0.32319 0.87787 -0.08800
H 	H 	0.58207 0.36140 0.90072 0.05500
H 	H 	0.70901 0.34158 0.87298 0.05700
C 	C 	0.58012 0.24605 0.39363 0.05300
C 	C 	0.60221 0.30265 0.39299 -0.08800
C 	C 	0.64564 0.32192 0.38159 0.05400
C 	C 	0.66662 0.28445 0.37050 -0.08700
H 	H 	0.58625 0.33186 0.40194 0.05500
H 	H 	0.70097 0.29985 0.36248 0.05800
C 	C 	0.47934 0.78257 0.00233 0.05100
C 	C 	0.45112 0.81515 0.00420 -0.08500
C 	C 	0.39815 0.78936 0.00338 0.04600
C 	C 	0.37369 0.73130 0.00114 -0.07900
C 	C 	0.40156 0.69849 0.99904 0.04300
C 	C 	0.45454 0.72417 0.99977 -0.09100
H 	H 	0.46975 0.85990 0.00546 0.05400
H 	H 	0.33235 0.71113 0.00003 0.05300
H 	H 	0.47591 0.69861 0.99775 0.05200
C 	C 	0.46785 0.74259 0.48440 0.05000
C 	C 	0.44084 0.77597 0.48841 -0.08800
C 	C 	0.38851 0.75037 0.48850 0.05100
C 	C 	0.36346 0.69163 0.48501 -0.08900
C 	C 	0.39015 0.65803 0.48082 0.05100
C 	C 	0.44250 0.68356 0.48063 -0.08800
H 	H 	0.45990 0.82124 0.49062 0.05400
H 	H 	0.32260 0.67161 0.48461 0.05400
H 	H 	0.46296 0.65742 0.47702 0.05400
O 	O 	0.04454 0.00387 0.80150 -0.47900
O 	O 	0.05057 0.92477 0.87227 -0.51000
O 	O 	0.10050 0.00381 0.95416 -0.45100
Zn	Zn	0.02165 0.02423 0.93837 1.20900
C 	C 	0.04038 0.01794 0.10462 0.38500
O 	O 	0.02395 0.96762 0.06603 -0.46600
Zn	Zn	0.01829 0.96595 0.84010 1.17400
C 	C 	0.03016 0.04080 0.78610 0.33000
C 	C 	0.09350 0.95480 0.92325 0.32200
O 	O 	0.04008 0.96148 0.29028 -0.49300
O 	O 	0.04312 0.88491 0.36239 -0.51200
O 	O 	0.09355 0.96762 0.44225 -0.46500
Zn	Zn	0.01223 0.98490 0.42335 1.20600
C 	C 	0.02724 0.97659 0.58827 0.37000
O 	O 	0.01953 0.93062 0.55264 -0.46500
Zn	Zn	0.01062 0.92403 0.32739 1.17700
C 	C 	0.02380 0.99553 0.27150 0.33000
C 	C 	0.08682 0.91756 0.41323 0.33500
C 	C 	0.02998 0.04651 0.74144 -0.16200
C 	C 	0.03911 0.01093 0.71258 0.01000
C 	C 	0.03550 0.97520 0.63252 -0.23100
C 	C 	0.05199 0.01973 0.15047 -0.19700
C 	C 	0.03921 0.96882 0.15678 0.00600
C 	C 	0.01988 0.99480 0.22398 -0.21800
H 	H 	0.02679 0.92653 0.12733 0.03300
C 	C 	0.24224 0.36565 0.45229 -0.01500
C 	C 	0.21239 0.38045 0.41412 -0.02800
C 	C 	0.24416 0.43906 0.41918 -0.05000
C 	C 	0.30594 0.48313 0.46242 0.02000
C 	C 	0.33610 0.46799 0.50014 -0.04900
C 	C 	0.30432 0.40936 0.49508 -0.02800
C 	C 	0.33709 0.54498 0.46962 -0.01400
C 	C 	0.36224 0.59645 0.47485 -0.03200
C 	C 	0.20900 0.30592 0.44794 0.05000
H 	H 	0.16450 0.34684 0.38083 0.03400
H 	H 	0.22051 0.45044 0.38988 0.04000
H 	H 	0.38381 0.50181 0.53370 0.04100
H 	H 	0.32778 0.39816 0.52464 0.03600
C 	C 	0.71296 0.86295 0.46713 -0.01400
C 	C 	0.71429 0.83501 0.49926 -0.02800
C 	C 	0.66546 0.81160 0.50402 -0.04900
C 	C 	0.61506 0.81602 0.47665 0.02000
C 	C 	0.61428 0.84503 0.44532 -0.04900
C 	C 	0.66312 0.86845 0.44057 -0.02800
C 	C 	0.56359 0.78978 0.47986 -0.01500
C 	C 	0.52016 0.76804 0.48215 -0.03200
C 	C 	0.76060 0.88217 0.45865 0.05300
H 	H 	0.75263 0.83054 0.51989 0.03700
H 	H 	0.66652 0.78947 0.52848 0.03900
H 	H 	0.57560 0.84885 0.42421 0.04100
H 	H 	0.66171 0.88994 0.41563 0.03500
C 	C 	0.21998 0.88063 0.46909 -0.02100
C 	C 	0.26671 0.90421 0.46177 -0.02700
C 	C 	0.30552 0.88250 0.47058 -0.05100
C 	C 	0.29780 0.83722 0.48683 0.02000
C 	C 	0.25343 0.81631 0.49707 -0.05100
C 	C 	0.21459 0.83798 0.48822 -0.02800
C 	C 	0.33077 0.80768 0.48776 -0.01500
C 	C 	0.35799 0.78247 0.48872 -0.03200
C 	C 	0.17302 0.89391 0.45057 0.05200
C 	C 	0.13411 0.90552 0.43485 -0.14200
H 	H 	0.27142 0.93751 0.44730 0.03400
H 	H 	0.34004 0.89925 0.46297 0.04000
H 	H 	0.24751 0.78165 0.51004 0.03900
H 	H 	0.17882 0.81979 0.49427 0.03000
C 	C 	0.31645 0.52533 0.98332 0.02100
C 	C 	0.25453 0.49660 0.96545 -0.05000
C 	C 	0.22323 0.43794 0.96042 -0.02900
C 	C 	0.25366 0.40770 0.97322 -0.01300
C 	C 	0.31553 0.43627 0.99087 -0.03200
C 	C 	0.34688 0.49501 0.99591 -0.05400
C 	C 	0.22139 0.34742 0.96832 0.04800
C 	C 	0.34881 0.58635 0.98948 -0.01800
C 	C 	0.37403 0.63742 0.99404 -0.03000
H 	H 	0.23072 0.51977 0.95566 0.03900
H 	H 	0.17541 0.41612 0.94669 0.03200
H 	H 	0.33935 0.41312 0.00076 0.04200
H 	H 	0.39474 0.51692 0.00975 0.04600
C 	C 	0.62866 0.85649 0.99740 0.01800
C 	C 	0.66669 0.83367 0.00750 -0.04600
C 	C 	0.71576 0.85749 0.00308 -0.02100
C 	C 	0.72700 0.90425 0.98854 -0.02100
C 	C 	0.68967 0.92788 0.97940 -0.02600
C 	C 	0.64061 0.90407 0.98383 -0.05100
C 	C 	0.77443 0.92522 0.97994 0.05400
C 	C 	0.57630 0.82993 0.99944 -0.02400
C 	C 	0.53233 0.80812 0.00100 -0.02200
H 	H 	0.65785 0.79701 0.01813 0.04000
H 	H 	0.74439 0.83895 0.01018 0.03800
H 	H 	0.69803 0.96398 0.96810 0.03400
H 	H 	0.61150 0.92206 0.97610 0.04000
C 	C 	0.22480 0.91509 0.97636 -0.01200
C 	C 	0.22056 0.87401 0.99711 -0.04800
C 	C 	0.26000 0.85303 0.00691 -0.03200
C 	C 	0.30382 0.87305 0.99597 0.01100
C 	C 	0.31003 0.91642 0.97761 -0.04600
C 	C 	0.27062 0.93743 0.96785 -0.03300
C 	C 	0.33814 0.84474 0.99884 -0.02300
C 	C 	0.36646 0.82050 0.00148 -0.02100
C 	C 	0.17834 0.92909 0.95862 0.04500
C 	C 	0.13986 0.94133 0.94353 -0.13800
H 	H 	0.18546 0.85675 0.00403 0.03900
H 	H 	0.25517 0.81976 0.02140 0.03600
H 	H 	0.34403 0.93237 0.96934 0.03900
H 	H 	0.27439 0.96948 0.95208 0.03600
C 	C 	0.72182 0.49069 0.38818 0.02200
C 	C 	0.72988 0.54177 0.42305 -0.04800
C 	C 	0.76032 0.60019 0.42738 -0.02600
C 	C 	0.69426 0.43152 0.38622 -0.01100
C 	C 	0.67131 0.38158 0.38400 -0.02900
H 	H 	0.71327 0.53642 0.44721 0.04200
H 	H 	0.76685 0.63962 0.45471 0.03800
C 	C 	0.72288 0.53004 0.89903 0.02100
C 	C 	0.74272 0.59500 0.85910 -0.02600
C 	C 	0.71193 0.53623 0.85408 -0.04800
C 	C 	0.69565 0.46925 0.89440 -0.01200
C 	C 	0.67283 0.41831 0.89048 -0.03000
H 	H 	0.73461 0.59937 0.82425 0.03700
H 	H 	0.68045 0.49550 0.81540 0.04300
O 	O 	0.99793 0.01641 0.86986 -0.84800
Zn	Zn	0.88799 0.91701 0.89364 1.17500
Zn	Zn	0.99403 0.94586 0.98862 1.19300
C 	C 	0.88080 0.81879 0.92571 0.34000
C 	C 	0.86080 0.95986 0.96330 0.33500
O 	O 	0.94022 0.85678 0.96473 -0.45200
O 	O 	0.85251 0.83366 0.89073 -0.46500
O 	O 	0.84314 0.94280 0.91444 -0.48200
O 	O 	0.91614 0.97516 0.99954 -0.46900
O 	O 	0.96563 0.93903 0.91546 -0.78600
H 	H 	0.95401 0.00163 0.84608 0.15600
O 	O 	0.98928 0.97534 0.35455 -0.85600
Zn	Zn	0.87912 0.87366 0.37643 1.17600
Zn	Zn	0.98671 0.90747 0.47470 1.19700
C 	C 	0.87575 0.77863 0.41217 0.34000
C 	C 	0.84752 0.91461 0.44257 0.33500
O 	O 	0.93472 0.81840 0.45191 -0.44900
O 	O 	0.84686 0.79125 0.37544 -0.46300
O 	O 	0.83034 0.89585 0.39375 -0.48000
O 	O 	0.90279 0.93057 0.47958 -0.47200
O 	O 	0.95827 0.89952 0.40130 -0.78300
H 	H 	0.94527 0.95994 0.33015 0.14900
C 	C 	0.03844 0.01791 0.66799 0.04700
H 	H 	0.03776 0.05683 0.66304 0.02600
H 	H 	0.02206 0.08036 0.73184 0.07500
H 	H 	0.99784 0.01567 0.20474 0.12600
C 	C 	0.80071 0.89810 0.45183 -0.12000
C 	C 	0.81434 0.94216 0.97294 -0.12300
C 	C 	0.78282 0.60768 0.39687 -0.01300
C 	C 	0.77393 0.55641 0.36145 -0.02600
C 	C 	0.74350 0.49803 0.35712 -0.04700
C 	C 	0.81570 0.66806 0.40238 0.05600
C 	C 	0.84327 0.71855 0.40689 -0.11600
H 	H 	0.79103 0.56185 0.33763 0.03900
H 	H 	0.73746 0.45873 0.33011 0.04400
C 	C 	0.76368 0.58297 0.94890 -0.04800
C 	C 	0.79447 0.64173 0.95393 -0.02600
C 	C 	0.78456 0.64778 0.90911 -0.01400
C 	C 	0.81840 0.70795 0.91461 0.05400
C 	C 	0.84690 0.75848 0.91953 -0.11800
H 	H 	0.77237 0.57853 0.98383 0.04200
H 	H 	0.82655 0.68239 0.99269 0.03700
