data_crystal

_cell_length_a 26.12231
_cell_length_b 26.43896
_cell_length_c 26.41236
_cell_angle_alpha 95.49568
_cell_angle_beta  95.49482
_cell_angle_gamma 125.83712

_symmetry_space_group_name_	'P 1'
_symmetry_space_group_name_H-M	'P 1'

loop_
_symmetry_equiv_pos_as_xyz
  x,y,z

loop_
_atom_site_label
_atom_site_type_symbol
_atom_site_fract_x
_atom_site_fract_y
_atom_site_fract_z
_atom_site_charge
C 	C 	0.96256 0.02496 0.97314 0.15500
N 	N 	0.93068 0.96265 0.97593 -0.12300
C 	C 	0.96186 0.93589 0.97539 0.15800
N 	N 	0.02512 0.97157 0.97250 -0.12400
C 	C 	0.05736 0.03407 0.97013 0.15800
N 	N 	0.02573 0.06048 0.96962 -0.11200
C 	C 	0.93728 0.99873 0.45396 0.16500
N 	N 	0.00051 0.03232 0.45097 -0.12700
C 	C 	0.03051 0.00438 0.45339 0.16200
N 	N 	0.99744 0.94302 0.45944 -0.12400
C 	C 	0.93455 0.90958 0.46349 0.16200
N 	N 	0.90412 0.93711 0.45981 -0.12500
Cu	Cu	0.63750 0.24179 0.00392 0.93400
Cu	Cu	0.67962 0.24023 0.89098 0.88500
Cu	Cu	0.68148 0.34703 0.94119 0.90300
Cu	Cu	0.65529 0.36756 0.04656 0.90700
C 	C 	0.66433 0.28757 0.11344 0.30600
O 	O 	0.54705 0.21303 0.00628 -0.33400
C 	C 	0.65466 0.30669 0.82677 0.30300
O 	O 	0.69789 0.34127 0.01182 -0.63900
O 	O 	0.62864 0.25244 0.93130 -0.63700
O 	O 	0.66767 0.18814 0.99534 -0.33800
O 	O 	0.73892 0.25018 0.94583 -0.42400
O 	O 	0.64048 0.31869 0.10352 -0.35700
O 	O 	0.73677 0.43862 0.95568 -0.36800
C 	C 	0.72977 0.47425 0.98836 0.32000
C 	C 	0.52721 0.24631 0.99262 0.30400
O 	O 	0.56910 0.30551 0.98767 -0.37400
O 	O 	0.70134 0.45413 0.02851 -0.36300
O 	O 	0.65994 0.24705 0.07654 -0.33500
C 	C 	0.71927 0.20770 0.97566 0.31200
O 	O 	0.67931 0.35332 0.86710 -0.36600
O 	O 	0.64149 0.25141 0.83222 -0.38900
H 	H 	0.74395 0.36431 0.02687 0.18500
H 	H 	0.58392 0.23078 0.91307 0.19200
Cu	Cu	0.73700 0.33781 0.43924 0.93300
Cu	Cu	0.73528 0.29214 0.55072 0.88500
Cu	Cu	0.63125 0.29732 0.50257 0.90500
Cu	Cu	0.61348 0.32774 0.39878 0.90700
C 	C 	0.68955 0.31299 0.33026 0.30400
O 	O 	0.76990 0.42881 0.43840 -0.34700
C 	C 	0.67268 0.32186 0.61670 0.30500
O 	O 	0.63630 0.28172 0.43166 -0.63900
O 	O 	0.72673 0.34603 0.51213 -0.63700
O 	O 	0.78755 0.30353 0.44607 -0.33900
O 	O 	0.72259 0.23312 0.49469 -0.42400
O 	O 	0.66120 0.33974 0.34096 -0.36200
O 	O 	0.53840 0.24514 0.48857 -0.36300
C 	C 	0.50263 0.24946 0.45300 0.31700
C 	C 	0.73952 0.45091 0.45542 0.30100
O 	O 	0.67875 0.41123 0.45884 -0.36000
O 	O 	0.52731 0.28707 0.41878 -0.35900
O 	O 	0.73076 0.31645 0.36631 -0.34000
C 	C 	0.76543 0.25145 0.46478 0.31100
O 	O 	0.62544 0.29904 0.57675 -0.36200
O 	O 	0.72679 0.33075 0.61077 -0.38700
H 	H 	0.61108 0.23620 0.41575 0.18500
H 	H 	0.75048 0.39014 0.53126 0.19700
C 	C 	0.60337 0.27811 0.68258 -0.02500
C 	C 	0.66079 0.32787 0.66966 -0.06900
C 	C 	0.71036 0.37803 0.70921 0.10500
C 	C 	0.70533 0.37362 0.76123 -0.02600
C 	C 	0.65112 0.31989 0.77410 -0.07100
C 	C 	0.59813 0.27403 0.73462 0.10500
N 	N 	0.53931 0.22282 0.74728 -0.02000
H 	H 	0.56387 0.24094 0.65226 0.07900
H 	H 	0.74501 0.41054 0.79156 0.07700
N 	N 	0.76627 0.43296 0.69667 -0.02100
O 	O 	0.51246 0.23451 0.78082 -0.08000
O 	O 	0.51107 0.16481 0.72353 -0.08200
O 	O 	0.76011 0.46401 0.66433 -0.07000
O 	O 	0.82333 0.45380 0.71957 -0.08400
C 	C 	0.62746 0.23698 0.18941 -0.01700
C 	C 	0.67774 0.28370 0.16759 -0.06200
C 	C 	0.73665 0.33324 0.19985 0.09800
C 	C 	0.74230 0.33915 0.25381 -0.01600
C 	C 	0.68959 0.29614 0.27567 -0.06600
C 	C 	0.63300 0.24300 0.24334 0.10200
N 	N 	0.58023 0.19625 0.26518 -0.02500
H 	H 	0.58282 0.19765 0.16454 0.08900
H 	H 	0.78660 0.37903 0.27868 0.08000
N 	N 	0.79003 0.37897 0.17797 -0.02500
O 	O 	0.52230 0.17758 0.24784 -0.08400
O 	O 	0.58964 0.17023 0.30072 -0.09800
O 	O 	0.82141 0.43937 0.19576 -0.08800
O 	O 	0.80901 0.36017 0.14182 -0.09200
C 	C 	0.89912 0.84302 0.47036 -0.02800
C 	C 	0.92425 0.82618 0.50935 0.12700
C 	C 	0.89679 0.76216 0.50931 -0.06500
C 	C 	0.84318 0.71453 0.47166 0.01700
C 	C 	0.81446 0.73112 0.43571 0.10300
C 	C 	0.84293 0.79522 0.43484 -0.03400
H 	H 	0.91756 0.74944 0.53824 0.09000
C 	C 	0.81905 0.64774 0.46887 0.02900
H 	H 	0.82239 0.80782 0.40560 0.08600
C 	C 	0.78209 0.61305 0.50456 -0.08000
C 	C 	0.75884 0.54971 0.50250 0.14800
C 	C 	0.77069 0.51983 0.46306 -0.09000
C 	C 	0.80967 0.55542 0.42855 -0.00900
C 	C 	0.83452 0.61925 0.43174 0.08800
H 	H 	0.77200 0.63554 0.53433 0.09400
H 	H 	0.81983 0.53319 0.39863 0.07800
Br	Br	0.73681 0.66694 0.38730 -0.17700
Br	Br	0.99390 0.88964 0.56440 -0.17700
Br	Br	0.71563 0.50685 0.55627 -0.19300
Br	Br	0.89006 0.66697 0.38538 -0.17500
C 	C 	0.90475 0.02897 0.45013 -0.03600
C 	C 	0.88082 0.03916 0.49246 0.12400
C 	C 	0.85545 0.07325 0.48971 -0.06700
C 	C 	0.85433 0.09799 0.44530 0.01700
C 	C 	0.87733 0.08701 0.40272 0.10000
C 	C 	0.90223 0.05249 0.40525 -0.03500
H 	H 	0.83786 0.08173 0.52258 0.08500
C 	C 	0.83241 0.13833 0.44494 0.03000
H 	H 	0.92061 0.04480 0.37261 0.08800
C 	C 	0.87643 0.20367 0.46473 -0.08200
C 	C 	0.85556 0.24177 0.46945 0.14700
C 	C 	0.78995 0.21446 0.45365 -0.09800
C 	C 	0.74634 0.14946 0.43218 -0.00500
C 	C 	0.76721 0.11133 0.42791 0.08500
H 	H 	0.92669 0.22458 0.47775 0.09200
H 	H 	0.69589 0.12826 0.41984 0.07100
Br	Br	0.87594 0.11958 0.34109 -0.16600
Br	Br	0.88591 0.01036 0.55551 -0.18500
Br	Br	0.91672 0.32994 0.50090 -0.21400
Br	Br	0.70580 0.02227 0.39967 -0.17600
C 	C 	0.43366 0.21420 0.45339 -0.09100
C 	C 	0.40807 0.24632 0.46879 0.15200
C 	C 	0.34206 0.21200 0.46819 -0.08000
C 	C 	0.30130 0.14573 0.45276 0.03100
C 	C 	0.32689 0.11362 0.43739 0.08600
C 	C 	0.39292 0.14793 0.43802 -0.00600
H 	H 	0.32250 0.23678 0.48024 0.09400
C 	C 	0.23204 0.11027 0.45336 0.01700
H 	H 	0.41250 0.12310 0.42621 0.06900
C 	C 	0.19022 0.09994 0.40934 -0.06400
C 	C 	0.12423 0.06561 0.40897 0.12500
C 	C 	0.09975 0.04173 0.45322 -0.02900
C 	C 	0.14167 0.05240 0.49732 -0.03500
C 	C 	0.20760 0.08671 0.49766 0.10200
H 	H 	0.20895 0.11802 0.37519 0.09000
H 	H 	0.12299 0.03408 0.53142 0.09300
Br	Br	0.27240 0.02297 0.41553 -0.17300
Br	Br	0.46280 0.33671 0.49252 -0.18600
Br	Br	0.06810 0.04963 0.34702 -0.17900
Br	Br	0.26356 0.10068 0.55886 -0.16800
C 	C 	0.76303 0.54131 0.98474 -0.09200
C 	C 	0.72802 0.56528 0.97395 0.15100
C 	C 	0.76062 0.62973 0.97209 -0.08000
C 	C 	0.82798 0.67056 0.98077 0.03000
C 	C 	0.86299 0.64658 0.99152 0.08700
C 	C 	0.83039 0.58208 0.99311 -0.00200
H 	H 	0.73359 0.64807 0.96367 0.09400
C 	C 	0.86148 0.73839 0.97894 0.01800
H 	H 	0.85747 0.56378 0.00150 0.07000
C 	C 	0.87567 0.78078 0.02368 -0.06600
C 	C 	0.90834 0.84548 0.02288 0.12400
C 	C 	0.92693 0.86813 0.97688 -0.03100
C 	C 	0.91247 0.82570 0.93209 -0.03600
C 	C 	0.87950 0.76096 0.93281 0.10000
H 	H 	0.86175 0.76348 0.05921 0.09000
H 	H 	0.92664 0.84303 0.89661 0.08200
Br	Br	0.95530 0.70134 0.00444 -0.17600
Br	Br	0.63569 0.51035 0.96010 -0.19900
Br	Br	0.92864 0.90245 0.08529 -0.17800
Br	Br	0.85947 0.70402 0.87050 -0.17400
C 	C 	0.75353 0.17999 0.98493 -0.09700
C 	C 	0.72297 0.11488 0.96695 0.14800
C 	C 	0.75874 0.09112 0.96966 -0.08200
C 	C 	0.82494 0.13178 0.98964 0.03100
C 	C 	0.85509 0.19638 0.00908 0.08300
C 	C 	0.81929 0.22013 0.00676 -0.00600
H 	H 	0.73541 0.04130 0.95487 0.09200
C 	C 	0.86296 0.10725 0.98678 0.01700
H 	H 	0.84292 0.27016 0.02083 0.07200
C 	C 	0.88809 0.10781 0.94206 -0.06500
C 	C 	0.92128 0.08158 0.93735 0.12300
C 	C 	0.92999 0.05492 0.97795 -0.02500
C 	C 	0.90543 0.05500 0.02291 -0.03700
C 	C 	0.87190 0.08087 0.02744 0.10100
H 	H 	0.88094 0.12780 0.91060 0.08500
H 	H 	0.91215 0.03463 0.05426 0.09100
Br	Br	0.94535 0.25308 0.03794 -0.17200
Br	Br	0.63350 0.05846 0.93533 -0.21300
Br	Br	0.95128 0.07962 0.87410 -0.18500
Br	Br	0.83836 0.07953 0.08928 -0.16600
C 	C 	0.12595 0.07232 0.96636 -0.02400
C 	C 	0.17190 0.13066 0.00060 0.12000
C 	C 	0.23729 0.16301 0.99927 -0.06100
C 	C 	0.25782 0.13645 0.96598 0.01600
C 	C 	0.21201 0.07859 0.93151 0.10300
C 	C 	0.14647 0.04762 0.93108 -0.03700
H 	H 	0.27250 0.20732 0.02609 0.08700
C 	C 	0.32693 0.16502 0.97244 0.03200
H 	H 	0.11144 0.00307 0.90446 0.08500
C 	C 	0.35613 0.15719 0.01516 -0.08400
C 	C 	0.42182 0.18509 0.02303 0.14900
C 	C 	0.45842 0.21859 0.98624 -0.09100
C 	C 	0.42929 0.22705 0.94376 -0.00800
C 	C 	0.36410 0.20145 0.93725 0.08800
H 	H 	0.32795 0.13058 0.04303 0.09200
H 	H 	0.45740 0.25381 0.91593 0.07500
Br	Br	0.23811 0.03926 0.88679 -0.16900
Br	Br	0.14739 0.16403 0.05292 -0.17300
Br	Br	0.46146 0.18214 0.08677 -0.19600
Br	Br	0.32710 0.21808 0.88095 -0.16300
