data_crystal

_cell_length_a 18.67936
_cell_length_b 18.80420
_cell_length_c 34.41186
_cell_angle_alpha 95.41942
_cell_angle_beta  95.41966
_cell_angle_gamma 126.43695

_symmetry_space_group_name_	'P 1'
_symmetry_space_group_name_H-M	'P 1'

loop_
_symmetry_equiv_pos_as_xyz
  x,y,z

loop_
_atom_site_label
_atom_site_type_symbol
_atom_site_fract_x
_atom_site_fract_y
_atom_site_fract_z
_atom_site_charge
C 	C 	0.91920 0.01408 0.97284 0.08300
C 	C 	0.00980 0.06452 0.96835 -0.10700
C 	C 	0.05446 0.02563 0.96825 0.08100
C 	C 	0.00816 0.93545 0.97202 -0.11300
C 	C 	0.91720 0.88409 0.97634 0.07900
C 	C 	0.87265 0.92364 0.97690 -0.10700
H 	H 	0.04606 0.13457 0.96569 0.07500
H 	H 	0.04276 0.90526 0.97154 0.08100
H 	H 	0.80251 0.88446 0.98047 0.07400
C 	C 	0.92112 0.00168 0.48702 0.07500
C 	C 	0.01306 0.05001 0.48450 -0.10100
C 	C 	0.05131 0.00482 0.48023 0.05600
C 	C 	0.99702 0.91135 0.47733 -0.07800
C 	C 	0.90597 0.86339 0.48093 0.06000
C 	C 	0.86838 0.90883 0.48625 -0.10100
H 	H 	0.05466 0.12226 0.48618 0.07300
H 	H 	0.02654 0.87645 0.47383 0.06300
H 	H 	0.79797 0.87186 0.48923 0.07200
Cu	Cu	0.76859 0.35728 0.96455 0.93600
Cu	Cu	0.74287 0.28615 0.04913 0.89000
Cu	Cu	0.61111 0.29936 0.00661 0.90100
Cu	Cu	0.59491 0.33201 0.92431 0.90600
C 	C 	0.72449 0.33060 0.87933 0.30500
O 	O 	0.81112 0.48481 0.96196 -0.30900
C 	C 	0.65837 0.34285 0.09460 0.30700
O 	O 	0.62640 0.27266 0.95417 -0.63800
O 	O 	0.74491 0.36840 0.01864 -0.64100
O 	O 	0.83677 0.30778 0.97505 -0.34400
O 	O 	0.73053 0.20482 0.00719 -0.42000
O 	O 	0.67427 0.35769 0.88415 -0.32000
O 	O 	0.48102 0.22404 0.99266 -0.36800
C 	C 	0.43448 0.23171 0.96435 0.30400
C 	C 	0.76121 0.51051 0.97022 0.29700
O 	O 	0.67517 0.44997 0.97117 -0.38400
O 	O 	0.46702 0.26348 0.93240 -0.36900
O 	O 	0.76955 0.32675 0.90997 -0.33000
C 	C 	0.79760 0.23162 0.98821 0.30200
O 	O 	0.59693 0.31385 0.06221 -0.36400
O 	O 	0.72705 0.33979 0.09398 -0.33300
H 	H 	0.59329 0.20779 0.94357 0.18600
H 	H 	0.77747 0.43045 0.03360 0.21200
Cu	Cu	0.59589 0.17778 0.50501 0.93500
Cu	Cu	0.69068 0.21981 0.42686 0.87900
Cu	Cu	0.61761 0.30908 0.45415 0.90500
Cu	Cu	0.60216 0.34587 0.53879 0.91200
C 	C 	0.63014 0.24220 0.58898 0.31100
O 	O 	0.46403 0.12641 0.50501 -0.34800
C 	C 	0.61938 0.27781 0.37018 0.29400
O 	O 	0.66447 0.31734 0.50886 -0.63100
O 	O 	0.58422 0.18686 0.44854 -0.64100
O 	O 	0.65123 0.11431 0.50016 -0.33400
O 	O 	0.76105 0.22439 0.47189 -0.40400
O 	O 	0.58616 0.27521 0.58099 -0.36800
O 	O 	0.64212 0.42570 0.45991 -0.31900
C 	C 	0.68828 0.48843 0.49218 0.29400
C 	C 	0.43010 0.16806 0.49429 0.28900
O 	O 	0.48402 0.25407 0.49256 -0.38400
O 	O 	0.66930 0.46894 0.52733 -0.36300
O 	O 	0.62919 0.18847 0.56105 -0.30500
C 	C 	0.72850 0.15256 0.48773 0.31700
O 	O 	0.58420 0.29649 0.39714 -0.30700
O 	O 	0.64486 0.22674 0.37595 -0.38400
H 	H 	0.73140 0.35840 0.51638 0.19600
H 	H 	0.52481 0.13980 0.43115 0.19000
C 	C 	0.76387 0.37210 0.77607 0.03900
C 	C 	0.73167 0.28625 0.75729 0.08800
C 	C 	0.72252 0.22408 0.78055 -0.10300
C 	C 	0.72490 0.24117 0.82158 0.07900
C 	C 	0.74562 0.32299 0.83963 0.00300
C 	C 	0.77577 0.39275 0.81752 -0.06500
C 	C 	0.70125 0.26031 0.71356 0.09900
C 	C 	0.71018 0.14026 0.76177 0.79000
H 	H 	0.70700 0.18974 0.83910 0.07700
C 	C 	0.81628 0.48782 0.83737 0.77800
H 	H 	0.77618 0.42160 0.75824 0.10400
C 	C 	0.61115 0.22316 0.69620 -0.11300
C 	C 	0.58813 0.21115 0.65478 0.07800
C 	C 	0.65426 0.24146 0.63095 -0.00600
C 	C 	0.74436 0.27903 0.64827 -0.07200
C 	C 	0.76609 0.28529 0.68938 0.02800
C 	C 	0.54224 0.20553 0.72198 0.78900
H 	H 	0.51935 0.18209 0.64107 0.07900
C 	C 	0.81768 0.31438 0.62324 0.77800
H 	H 	0.83462 0.31353 0.70305 0.11900
F 	F 	0.74792 0.49626 0.83877 -0.43700
F 	F 	0.87677 0.54943 0.81609 -0.42500
F 	F 	0.86291 0.50882 0.87552 -0.43600
F 	F 	0.77639 0.16355 0.73942 -0.42900
F 	F 	0.62600 0.08140 0.73737 -0.39900
F 	F 	0.71706 0.09628 0.79026 -0.43200
F 	F 	0.90232 0.35555 0.64619 -0.42500
F 	F 	0.82179 0.37707 0.60342 -0.46000
F 	F 	0.79843 0.24394 0.59582 -0.44500
F 	F 	0.45659 0.16137 0.69941 -0.43000
F 	F 	0.56815 0.28643 0.74268 -0.43400
F 	F 	0.53610 0.15255 0.74869 -0.40900
C 	C 	0.70588 0.42348 0.20401 0.04000
C 	C 	0.61982 0.36050 0.21246 0.08900
C 	C 	0.54292 0.31575 0.18176 -0.10600
C 	C 	0.55519 0.31471 0.14203 0.08200
C 	C 	0.64302 0.36714 0.13342 0.00200
C 	C 	0.71712 0.43130 0.16450 -0.06800
C 	C 	0.61226 0.33519 0.25219 0.09600
C 	C 	0.44887 0.26996 0.19124 0.79000
H 	H 	0.49726 0.27010 0.11812 0.08200
C 	C 	0.80842 0.50613 0.15597 0.77900
H 	H 	0.76436 0.46347 0.22797 0.10300
C 	C 	0.60582 0.25857 0.25894 -0.10900
C 	C 	0.59708 0.23618 0.29690 0.07400
C 	C 	0.61221 0.29717 0.32966 0.00100
C 	C 	0.62877 0.37920 0.32345 -0.07200
C 	C 	0.62123 0.39336 0.28429 0.03000
C 	C 	0.61524 0.20477 0.22674 0.78800
H 	H 	0.58244 0.17284 0.30142 0.08800
C 	C 	0.65482 0.45185 0.35800 0.77600
H 	H 	0.62623 0.45185 0.27882 0.11200
F 	F 	0.86241 0.47854 0.15518 -0.42500
F 	F 	0.85121 0.58207 0.18531 -0.42400
F 	F 	0.79900 0.52967 0.11997 -0.45200
F 	F 	0.45050 0.32506 0.22155 -0.43000
F 	F 	0.41882 0.18972 0.20302 -0.40100
F 	F 	0.38775 0.25218 0.15849 -0.43500
F 	F 	0.68844 0.53277 0.34588 -0.44500
F 	F 	0.72168 0.46715 0.38688 -0.46600
F 	F 	0.57931 0.42565 0.37407 -0.43900
F 	F 	0.61666 0.13888 0.24075 -0.42800
F 	F 	0.69536 0.26124 0.21339 -0.43400
F 	F 	0.54354 0.16307 0.19515 -0.40800
C 	C 	0.87938 0.73876 0.51277 -0.07400
C 	C 	0.85196 0.76650 0.48211 -0.01800
C 	C 	0.77330 0.70165 0.45313 0.10300
C 	C 	0.71935 0.61139 0.45755 -0.01600
C 	C 	0.74720 0.58354 0.48805 -0.07500
C 	C 	0.83056 0.64730 0.51465 0.13400
N 	N 	0.86587 0.62089 0.54078 -0.19900
H 	H 	0.94062 0.78835 0.53449 0.06800
H 	H 	0.65599 0.56257 0.43693 0.11300
N 	N 	0.75064 0.72508 0.42060 -0.19300
H 	H 	0.92460 0.66875 0.56185 0.11900
H 	H 	0.83943 0.55345 0.53869 0.11400
H 	H 	0.79421 0.78937 0.41413 0.11200
H 	H 	0.69061 0.67729 0.40020 0.14200
C 	C 	0.84369 0.05440 0.45207 -0.07100
C 	C 	0.87827 0.04700 0.48810 -0.02400
C 	C 	0.86106 0.07180 0.52418 0.09900
C 	C 	0.80782 0.10187 0.52329 -0.02300
C 	C 	0.77324 0.10921 0.48721 -0.08700
C 	C 	0.78866 0.08225 0.45109 0.12400
N 	N 	0.74773 0.07918 0.41543 -0.19800
H 	H 	0.85578 0.03393 0.42446 0.06700
H 	H 	0.79486 0.12128 0.55084 0.11100
N 	N 	0.89626 0.06797 0.55969 -0.19500
H 	H 	0.76296 0.06353 0.38900 0.10700
H 	H 	0.69675 0.08701 0.41343 0.05900
H 	H 	0.93990 0.05046 0.56156 0.11200
H 	H 	0.88172 0.08468 0.58610 0.13300
C 	C 	0.20363 0.08411 0.52107 -0.08100
C 	C 	0.15004 0.05588 0.48336 -0.01500
C 	C 	0.18857 0.06364 0.44903 0.08500
C 	C 	0.27952 0.09678 0.45317 -0.02200
C 	C 	0.33241 0.12266 0.49090 -0.09500
C 	C 	0.29399 0.11587 0.52526 0.13600
N 	N 	0.34308 0.13896 0.56225 -0.20500
H 	H 	0.17369 0.07768 0.54729 0.07000
H 	H 	0.30962 0.10384 0.42697 0.05800
N 	N 	0.13905 0.04037 0.41214 -0.19300
H 	H 	0.31486 0.13617 0.58742 0.12200
H 	H 	0.40840 0.15732 0.56646 0.11800
H 	H 	0.07292 0.02020 0.40818 0.10700
H 	H 	0.16737 0.04438 0.38689 0.11600
C 	C 	0.80231 0.72304 0.94505 -0.07200
C 	C 	0.86751 0.78738 0.97802 -0.01800
C 	C 	0.89404 0.75966 0.00958 0.09300
C 	C 	0.86066 0.66929 0.00589 -0.02500
C 	C 	0.79781 0.60550 0.97226 -0.07600
C 	C 	0.76715 0.63231 0.94173 0.14700
N 	N 	0.70554 0.57191 0.90887 -0.19200
H 	H 	0.78146 0.74424 0.92109 0.07300
H 	H 	0.88222 0.64826 0.02967 0.07500
N 	N 	0.95002 0.81896 0.04368 -0.19400
H 	H 	0.68301 0.59236 0.88673 0.13300
H 	H 	0.68025 0.50465 0.90460 0.12200
H 	H 	0.96935 0.88429 0.04875 0.11200
H 	H 	0.97190 0.79890 0.06628 0.12800
C 	C 	0.88073 0.09786 0.01401 -0.07700
C 	C 	0.87568 0.05863 0.97615 -0.02000
C 	C 	0.84581 0.07745 0.94199 0.09100
C 	C 	0.82548 0.13843 0.94649 -0.02100
C 	C 	0.83282 0.17939 0.98441 -0.09200
C 	C 	0.86268 0.16046 0.01853 0.12900
N 	N 	0.87750 0.20467 0.05557 -0.19800
H 	H 	0.90445 0.08401 0.04010 0.07200
H 	H 	0.80147 0.15205 0.92040 0.07000
N 	N 	0.83556 0.03649 0.90492 -0.19100
H 	H 	0.89589 0.18769 0.08067 0.11500
H 	H 	0.87534 0.25904 0.05975 0.08000
H 	H 	0.84454 0.98672 0.90068 0.10500
H 	H 	0.81583 0.05245 0.87981 0.13200
C 	C 	0.21503 0.14309 0.99995 -0.07400
C 	C 	0.15139 0.08099 0.96614 -0.02100
C 	C 	0.18076 0.07372 0.93056 0.08900
C 	C 	0.27386 0.12565 0.93020 -0.02100
C 	C 	0.33767 0.18655 0.96430 -0.09500
C 	C 	0.30786 0.19823 0.99900 0.14300
N 	N 	0.36760 0.26393 0.03091 -0.20300
H 	H 	0.19202 0.14987 0.02687 0.07300
H 	H 	0.29672 0.11757 0.90347 0.06800
N 	N 	0.12017 0.01759 0.89668 -0.18900
H 	H 	0.34562 0.26874 0.05718 0.12900
H 	H 	0.43509 0.31368 0.02929 0.11200
H 	H 	0.14269 0.01149 0.87079 0.11800
H 	H 	0.05048 0.98104 0.89537 0.10200
