data_crystal

_cell_length_a 11.60518
_cell_length_b 13.21627
_cell_length_c 46.99776
_cell_angle_alpha 90.46669
_cell_angle_beta  90.47612
_cell_angle_gamma 119.26470

_symmetry_space_group_name_	'P 1'
_symmetry_space_group_name_H-M	'P 1'

loop_
_symmetry_equiv_pos_as_xyz
  x,y,z

loop_
_atom_site_label
_atom_site_type_symbol
_atom_site_fract_x
_atom_site_fract_y
_atom_site_fract_z
_atom_site_charge
C 	C 	0.60035 0.92075 0.92063 0.32900
C 	C 	0.39972 0.20873 0.95564 0.30900
C 	C 	0.19647 0.98234 0.90382 0.38000
Ni	Ni	0.44216 0.20511 0.89297 1.11500
Ni	Ni	0.42908 0.01230 0.93685 1.10300
O 	O 	0.47763 0.89753 0.91991 -0.36900
O 	O 	0.39339 0.25170 0.93068 -0.37400
O 	O 	0.60435 0.36165 0.89593 -0.38700
O 	O 	0.25667 0.92883 0.91507 -0.37600
O 	O 	0.58615 0.08048 0.96474 -0.39700
O 	O 	0.25928 0.06968 0.88615 -0.41700
O 	O 	0.49429 0.18842 0.85198 -0.38200
O 	O 	0.35448 0.09738 0.95814 -0.41000
O 	O 	0.52264 0.11769 0.90694 -0.70200
H 	H 	0.48085 0.05417 0.89286 0.11700
C 	C 	0.64883 0.45052 0.70974 0.32700
C 	C 	0.27049 0.03696 0.64528 0.32200
C 	C 	0.40143 0.13387 0.73611 0.35000
C 	C 	0.47227 0.25377 0.61546 0.30500
Ni	Ni	0.41879 0.25105 0.68002 1.11400
Ni	Ni	0.55726 0.10985 0.64951 1.11500
Ni	Ni	0.66787 0.23542 0.70941 1.12000
O 	O 	0.55300 0.42318 0.69080 -0.37400
O 	O 	0.65024 0.36955 0.72561 -0.38800
O 	O 	0.26361 0.08991 0.66839 -0.38000
O 	O 	0.35986 0.00409 0.64311 -0.38800
O 	O 	0.38745 0.21622 0.72340 -0.37400
O 	O 	0.50552 0.12035 0.73125 -0.39000
O 	O 	0.43372 0.29618 0.63698 -0.36900
O 	O 	0.55994 0.21783 0.61892 -0.38800
O 	O 	0.55542 0.21440 0.67727 -0.71100
H 	H 	0.61276 0.28699 0.66741 0.14200
C 	C 	0.12356 0.03518 0.78556 0.27700
C 	C 	0.97394 0.97443 0.86211 0.32300
O 	O 	0.07307 0.07969 0.80344 -0.37600
O 	O 	0.03727 0.93314 0.84622 -0.33300
O 	O 	0.07909 0.92243 0.78464 -0.33600
C 	C 	0.43172 0.04019 0.45338 0.31100
C 	C 	0.41455 0.67884 0.37697 0.33800
C 	C 	0.37877 0.79270 0.47234 0.31900
C 	C 	0.53835 0.00846 0.35927 0.24200
C 	C 	0.71027 0.78858 0.43786 0.32700
Ni	Ni	0.38487 0.86114 0.40977 1.11700
Ni	Ni	0.66811 0.89390 0.38786 1.12900
Ni	Ni	0.64409 0.96850 0.45270 1.13100
O 	O 	0.40040 0.01301 0.42630 -0.39000
O 	O 	0.54559 0.05587 0.46427 -0.39000
O 	O 	0.68616 0.77462 0.41041 -0.38200
O 	O 	0.35518 0.69775 0.39831 -0.38400
O 	O 	0.51713 0.76519 0.36519 -0.37800
O 	O 	0.79403 0.11769 0.43793 -0.38900
O 	O 	0.30954 0.79230 0.44984 -0.36500
O 	O 	0.50329 0.81983 0.47019 -0.38500
O 	O 	0.42196 0.92288 0.36778 -0.31900
O 	O 	0.64585 0.99768 0.35994 -0.32800
O 	O 	0.75680 0.89188 0.44972 -0.37300
O 	O 	0.56790 0.92727 0.41549 -0.68300
H 	H 	0.59305 0.00721 0.41020 0.12100
C 	C 	0.39312 0.85309 0.23744 0.31700
C 	C 	0.40872 0.70068 0.11951 0.32200
C 	C 	0.22332 0.53254 0.20817 0.35200
C 	C 	0.51750 0.96047 0.13961 0.31300
C 	C 	0.57470 0.59421 0.16993 0.31300
C 	C 	0.76822 0.89555 0.21627 0.32400
Ni	Ni	0.32534 0.75421 0.17512 1.11200
Ni	Ni	0.63970 0.83038 0.16042 1.12200
Ni	Ni	0.50331 0.69465 0.21881 1.12000
O 	O 	0.30913 0.81831 0.21499 -0.36300
O 	O 	0.48014 0.81496 0.24237 -0.36700
O 	O 	0.67449 0.69884 0.16738 -0.38400
O 	O 	0.32987 0.65901 0.14093 -0.38500
O 	O 	0.53833 0.75346 0.12327 -0.38200
O 	O 	0.70162 0.78466 0.22235 -0.38800
O 	O 	0.19304 0.58965 0.18989 -0.37800
O 	O 	0.31227 0.58913 0.22767 -0.38500
O 	O 	0.77713 0.92865 0.18973 -0.37100
O 	O 	0.40177 0.91112 0.15243 -0.36800
O 	O 	0.62196 0.97145 0.15294 -0.37600
O 	O 	0.49981 0.56833 0.19279 -0.37400
O 	O 	0.49397 0.77986 0.18669 -0.70200
H 	H 	0.52749 0.85791 0.19503 0.15200
C 	C 	0.24446 0.00151 0.27618 0.23200
C 	C 	0.33447 0.45496 0.32262 0.34100
C 	C 	0.37618 0.15662 0.34608 0.35900
C 	C 	0.21144 0.32055 0.24645 0.31400
Ni	Ni	0.34818 0.26006 0.29293 1.11200
O 	O 	0.35008 0.10396 0.28283 -0.35600
O 	O 	0.12772 0.96712 0.28792 -0.34200
O 	O 	0.38368 0.42846 0.30054 -0.38400
O 	O 	0.20813 0.39401 0.32831 -0.38900
O 	O 	0.39601 0.25417 0.33515 -0.39700
O 	O 	0.27851 0.05810 0.33650 -0.39200
O 	O 	0.29459 0.28085 0.25208 -0.38100
O 	O 	0.15769 0.35336 0.26722 -0.36600
O 	O 	0.16811 0.17957 0.30068 -0.71800
H 	H 	0.13500 0.14384 0.28181 0.14600
C 	C 	0.14230 0.41861 0.21109 -0.12100
C 	C 	0.19748 0.34302 0.21926 -0.11500
H 	H 	0.04797 0.37836 0.19978 0.07900
H 	H 	0.23836 0.31297 0.20259 0.07800
H 	H 	0.78590 0.85135 0.27251 0.07300
C 	C 	0.38177 0.92180 0.25708 -0.12100
C 	C 	0.25690 0.92684 0.25888 -0.04300
H 	H 	0.45536 0.96009 0.27408 0.10500
H 	H 	0.16724 0.85433 0.25005 0.07500
C 	C 	0.36135 0.57211 0.36555 -0.11700
C 	C 	0.41242 0.54773 0.33889 -0.11600
H 	H 	0.27528 0.50210 0.37551 0.08900
H 	H 	0.51510 0.60276 0.33317 0.08600
C 	C 	0.47210 0.15624 0.36136 -0.15100
C 	C 	0.54724 0.10495 0.34879 -0.07900
H 	H 	0.52495 0.22687 0.37657 0.08700
H 	H 	0.63417 0.16180 0.33668 0.06600
C 	C 	0.16086 0.01245 0.51175 -0.03600
C 	C 	0.16401 0.10951 0.52475 -0.03000
C 	C 	0.12948 0.10503 0.55339 -0.02700
C 	C 	0.09288 0.00360 0.56885 -0.04100
C 	C 	0.06114 0.90069 0.55394 0.00100
C 	C 	0.09658 0.90532 0.52541 -0.00300
C 	C 	0.25275 0.02846 0.48951 0.05600
C 	C 	0.33384 0.03737 0.47236 -0.11700
C 	C 	0.13666 0.01432 0.59801 0.06000
C 	C 	0.18925 0.02409 0.62086 -0.12500
H 	H 	0.20413 0.19083 0.51357 0.04300
H 	H 	0.14651 0.18383 0.56429 0.04100
H 	H 	0.02543 0.82004 0.56531 0.04400
H 	H 	0.08689 0.82810 0.51497 0.04300
C 	C 	0.18769 0.63721 0.54581 -0.00700
C 	C 	0.25609 0.61346 0.56716 -0.02800
C 	C 	0.19045 0.55467 0.59174 -0.03900
C 	C 	0.05630 0.52013 0.59521 0.01800
C 	C 	0.98867 0.54590 0.57409 -0.04700
C 	C 	0.05400 0.60383 0.54944 -0.02400
C 	C 	0.25377 0.69269 0.51979 0.04600
C 	C 	0.30986 0.73841 0.49807 -0.09900
H 	H 	0.35936 0.63878 0.56455 0.04300
H 	H 	0.24332 0.53429 0.60777 0.05000
H 	H 	0.00007 0.62116 0.53303 0.03900
C 	C 	0.45986 0.36260 0.53590 -0.00500
C 	C 	0.54723 0.35841 0.51614 -0.03200
C 	C 	0.58754 0.43294 0.49299 -0.03100
C 	C 	0.53904 0.51044 0.48944 -0.00400
C 	C 	0.44018 0.50479 0.50732 -0.03200
C 	C 	0.40077 0.43103 0.53058 -0.03400
C 	C 	0.45376 0.31799 0.56378 0.04600
C 	C 	0.45717 0.28616 0.58744 -0.10000
C 	C 	0.60337 0.60594 0.47053 0.06100
C 	C 	0.65525 0.68881 0.45544 -0.10600
H 	H 	0.59093 0.30345 0.51980 0.04600
H 	H 	0.66183 0.43501 0.47882 0.04700
H 	H 	0.39983 0.56250 0.50421 0.05000
H 	H 	0.33038 0.43226 0.54539 0.04100
C 	C 	0.31430 0.06847 0.75588 -0.17600
C 	C 	0.22715 0.10697 0.76979 -0.08000
H 	H 	0.31803 0.99342 0.76408 0.13200
H 	H 	0.25557 0.19852 0.76944 0.08100
H 	H 	0.72240 0.62944 0.70474 0.09000
C 	C 	0.18717 0.52957 0.05124 -0.00400
C 	C 	0.14546 0.41073 0.04961 -0.03800
C 	C 	0.11055 0.57235 0.03834 -0.02400
C 	C 	0.28468 0.59950 0.07224 0.04900
C 	C 	0.35290 0.65184 0.09237 -0.10900
H 	H 	0.20190 0.37635 0.06019 0.04700
C 	C 	0.64878 0.89721 0.00309 -0.07000
C 	C 	0.52178 0.82669 0.01372 0.01900
C 	C 	0.48273 0.85794 0.03877 -0.08100
C 	C 	0.57438 0.95155 0.05529 0.09800
C 	C 	0.70513 0.01629 0.04606 -0.18500
C 	C 	0.74197 0.98974 0.01992 0.12700
C 	C 	0.66308 0.90166 0.97277 0.10100
C 	C 	0.64952 0.90889 0.94763 -0.12500
C 	C 	0.54253 0.96410 0.08415 0.02900
C 	C 	0.52297 0.96659 0.10920 -0.09300
H 	H 	0.44882 0.75471 0.00098 0.03200
H 	H 	0.38091 0.80961 0.04525 0.05700
H 	H 	0.77801 0.08721 0.05906 0.07000
H 	H 	0.84041 0.04523 0.01200 -0.02000
C 	C 	0.47427 0.43616 0.09148 -0.00100
C 	C 	0.40404 0.31708 0.08505 -0.03700
C 	C 	0.38560 0.27824 0.05659 -0.03600
C 	C 	0.43680 0.35827 0.03434 -0.00200
C 	C 	0.50592 0.47737 0.04078 -0.03400
C 	C 	0.52524 0.51613 0.06922 -0.03300
C 	C 	0.49856 0.47749 0.12089 0.05200
C 	C 	0.52697 0.52265 0.14439 -0.10100
C 	C 	0.42547 0.31698 0.00511 0.04300
C 	C 	0.41479 0.27431 0.98158 -0.09400
H 	H 	0.36466 0.25453 0.10200 0.03900
H 	H 	0.33260 0.18597 0.05189 0.03700
H 	H 	0.54605 0.53995 0.02385 0.04500
H 	H 	0.58027 0.60834 0.07394 0.05200
C 	C 	0.06436 0.93022 0.90485 -0.11700
C 	C 	0.98963 0.98003 0.89047 -0.07100
H 	H 	0.01118 0.85464 0.91810 0.09500
C 	C 	0.69747 0.17912 0.96128 0.31100
C 	C 	0.63266 0.00481 0.69516 0.24700
O 	O 	0.54236 0.98490 0.67573 -0.33000
H 	H 	0.14659 0.26393 0.39993 0.08500
H 	H 	0.58299 0.82920 0.69769 0.06800
H 	H 	0.14042 0.66375 0.03997 0.04100
H 	H 	0.39001 0.02750 0.81498 0.08100
O 	O 	0.71723 0.11142 0.70300 -0.37900
C 	C 	0.02663 0.33487 0.03587 -0.01200
H 	H 	0.99641 0.24339 0.03439 0.02800
C 	C 	0.54199 0.11836 0.84449 0.32800
O 	O 	0.68267 0.99484 0.90229 -0.34100
C 	C 	0.71179 0.38520 0.88233 0.33800
Ni	Ni	0.70292 0.16047 0.89772 1.10500
O 	O 	0.77143 0.19298 0.93907 -0.38200
O 	O 	0.65667 0.13525 0.85467 -0.38400
C 	C 	0.58039 0.90691 0.82060 0.31000
Ni	Ni	0.66211 0.75249 0.78971 1.11600
O 	O 	0.64063 0.60697 0.81234 -0.37200
O 	O 	0.65482 0.87318 0.76300 -0.38700
O 	O 	0.56317 0.80006 0.81886 -0.37100
C 	C 	0.04360 0.18218 0.36268 0.32800
Ni	Ni	0.07249 0.26235 0.30373 1.11500
Ni	Ni	0.10357 0.04281 0.32303 1.10700
O 	O 	0.10127 0.11867 0.35984 -0.39900
C 	C 	0.98448 0.44847 0.61900 0.03500
C 	C 	0.65052 0.91813 0.70425 -0.03600
C 	C 	0.76680 0.24424 0.98602 -0.10700
C 	C 	0.47438 0.03097 0.82603 -0.16800
C 	C 	0.47728 0.91992 0.82879 -0.05900
H 	H 	0.38694 0.84371 0.83516 0.07100
C 	C 	0.67045 0.50192 0.84763 -0.10700
H 	H 	0.56811 0.43505 0.84438 0.07800
C 	C 	0.73064 0.56222 0.71628 -0.11700
O 	O 	0.84306 0.02472 0.40228 -0.38700
C 	C 	0.83140 0.97500 0.23681 -0.09400
O 	O 	0.75851 0.19167 0.64999 -0.38000
C 	C 	0.85446 0.12111 0.41381 0.31300
O 	O 	0.78311 0.33829 0.89055 -0.37900
O 	O 	0.69002 0.99839 0.81115 -0.33100
C 	C 	0.71586 0.60150 0.83343 0.32100
C 	C 	0.76084 0.47239 0.86376 -0.12000
C 	C 	0.82395 0.94200 0.26719 -0.06700
H 	H 	0.88827 0.06586 0.23107 0.06400
C 	C 	0.76212 0.94742 0.75001 0.40700
C 	C 	0.76797 0.94470 0.72176 -0.16200
O 	O 	0.76082 0.72308 0.75715 -0.38700
O 	O 	0.82353 0.33694 0.68442 -0.37600
C 	C 	0.84331 0.30382 0.00434 0.05100
C 	C 	0.05694 0.23760 0.38744 -0.13200
C 	C 	0.83358 0.30159 0.65830 0.29700
H 	H 	0.77995 0.83766 0.82861 0.16200
H 	H 	0.93360 0.53038 0.01444 0.04400
C 	C 	0.82482 0.59537 0.74078 -0.11900
C 	C 	0.82962 0.67000 0.76079 0.34300
O 	O 	0.81625 0.85396 0.80928 -0.71200
H 	H 	0.86287 0.50875 0.85712 0.08200
O 	O 	0.83258 0.69087 0.84086 -0.38400
C 	C 	0.88261 0.02294 0.28762 0.24500
H 	H 	0.86399 0.98994 0.71175 0.11400
C 	C 	0.94054 0.22419 0.40306 -0.09800
H 	H 	0.87965 0.54909 0.74402 0.08100
H 	H 	0.94353 0.30197 0.41167 0.07900
O 	O 	0.91348 0.99353 0.31227 -0.34100
O 	O 	0.86821 0.01785 0.76479 -0.43900
Ni	Ni	0.87700 0.01684 0.80788 1.10400
H 	H 	0.88479 0.51883 0.57646 0.05000
O 	O 	0.89429 0.68127 0.78487 -0.39200
C 	C 	0.99146 0.49637 0.02461 -0.03700
C 	C 	0.91931 0.38445 0.63781 -0.09100
C 	C 	0.94869 0.37724 0.02349 -0.01600
O 	O 	0.91946 0.13318 0.28233 -0.36700
O 	O 	0.90890 0.02350 0.85023 -0.42000
O 	O 	0.98016 0.19651 0.34099 -0.37000
Ni	Ni	0.95273 0.81498 0.81374 1.11500
H 	H 	0.93976 0.01489 0.90342 0.04200
