data_crystal

_cell_length_a 26.67315
_cell_length_b 26.93538
_cell_length_c 36.75648
_cell_angle_alpha 95.50558
_cell_angle_beta  95.50478
_cell_angle_gamma 125.73039

_symmetry_space_group_name_	'P 1'
_symmetry_space_group_name_H-M	'P 1'

loop_
_symmetry_equiv_pos_as_xyz
  x,y,z

loop_
_atom_site_label
_atom_site_type_symbol
_atom_site_fract_x
_atom_site_fract_y
_atom_site_fract_z
_atom_site_charge
C 	C 	0.96823 0.03553 0.99075 0.06000
C 	C 	0.92847 0.97158 0.99159 -0.10200
C 	C 	0.95137 0.93621 0.98901 0.06100
C 	C 	0.01397 0.96469 0.98500 -0.09800
C 	C 	0.05469 0.02916 0.98595 0.06200
C 	C 	0.03149 0.06430 0.98851 -0.10000
H 	H 	0.88007 0.94958 0.99458 0.05400
H 	H 	0.03076 0.93672 0.98086 0.05400
H 	H 	0.06253 0.11388 0.98860 0.05300
C 	C 	0.95572 0.02115 0.48008 0.05900
C 	C 	0.02094 0.05418 0.48332 -0.09700
C 	C 	0.04771 0.02232 0.48152 0.06000
C 	C 	0.00921 0.95720 0.47789 -0.09500
C 	C 	0.94405 0.92407 0.47625 0.05800
C 	C 	0.91742 0.95613 0.47690 -0.09800
H 	H 	0.05071 0.10453 0.48663 0.05300
H 	H 	0.02986 0.93252 0.47642 0.05500
H 	H 	0.86715 0.93066 0.47543 0.05300
Cu	Cu	0.63593 0.24851 0.99897 0.92600
Cu	Cu	0.67528 0.23933 0.91791 0.87000
Cu	Cu	0.67146 0.34353 0.94819 0.89600
Cu	Cu	0.64280 0.36790 0.02221 0.89400
C 	C 	0.66157 0.30139 0.07634 0.30400
O 	O 	0.54610 0.21533 0.00095 -0.36400
C 	C 	0.64366 0.29450 0.86722 0.30700
O 	O 	0.68883 0.34472 0.00014 -0.63900
O 	O 	0.62395 0.25158 0.94539 -0.64200
O 	O 	0.67008 0.19956 0.99661 -0.38100
O 	O 	0.73611 0.25633 0.95838 -0.44800
O 	O 	0.63507 0.32831 0.06679 -0.38600
O 	O 	0.72226 0.43330 0.95463 -0.38700
C 	C 	0.72226 0.46997 0.98119 0.30500
C 	C 	0.52143 0.24156 0.98737 0.29700
O 	O 	0.55825 0.29865 0.98134 -0.39600
O 	O 	0.67956 0.44707 0.00277 -0.39500
O 	O 	0.66089 0.26176 0.05172 -0.36000
C 	C 	0.71986 0.21797 0.98189 0.31300
O 	O 	0.66839 0.34311 0.89422 -0.38900
O 	O 	0.63460 0.24287 0.87374 -0.42300
H 	H 	0.73415 0.37055 0.01126 0.16300
H 	H 	0.57964 0.22737 0.93247 0.17100
Cu	Cu	0.73958 0.34551 0.45245 0.92800
Cu	Cu	0.72952 0.28641 0.52796 0.87000
Cu	Cu	0.63410 0.30343 0.49675 0.89700
Cu	Cu	0.62645 0.34977 0.42653 0.89300
C 	C 	0.69929 0.33632 0.37502 0.30400
O 	O 	0.77951 0.43754 0.45766 -0.36800
C 	C 	0.66986 0.31420 0.57763 0.30700
O 	O 	0.64153 0.29627 0.44556 -0.64100
O 	O 	0.72696 0.34640 0.50463 -0.64100
O 	O 	0.78407 0.30646 0.45361 -0.37900
O 	O 	0.71610 0.23267 0.48467 -0.44600
O 	O 	0.67420 0.36445 0.38511 -0.38700
O 	O 	0.54366 0.25759 0.48531 -0.38600
C 	C 	0.51271 0.26558 0.45910 0.30800
C 	C 	0.75264 0.46145 0.47128 0.30300
O 	O 	0.69259 0.42510 0.47292 -0.39500
O 	O 	0.54241 0.31213 0.44089 -0.40000
O 	O 	0.73533 0.33196 0.39970 -0.36100
C 	C 	0.75901 0.25233 0.46370 0.31000
O 	O 	0.62484 0.29532 0.54899 -0.38900
O 	O 	0.72127 0.31985 0.57320 -0.42200
H 	H 	0.61497 0.25297 0.43141 0.16200
H 	H 	0.75168 0.38827 0.52056 0.17100
C 	C 	0.63814 0.32062 0.68375 -0.00700
C 	C 	0.58798 0.26650 0.69367 -0.03500
C 	C 	0.58416 0.26354 0.73119 -0.03600
C 	C 	0.63044 0.31469 0.75893 -0.00700
C 	C 	0.67868 0.36994 0.74891 -0.03500
C 	C 	0.68254 0.37289 0.71140 -0.03500
C 	C 	0.64834 0.31982 0.64599 0.04400
C 	C 	0.65777 0.31798 0.61463 -0.11200
C 	C 	0.63302 0.30793 0.79732 0.04400
C 	C 	0.63687 0.30190 0.82933 -0.11200
H 	H 	0.55332 0.22597 0.67245 0.03800
H 	H 	0.54658 0.22073 0.73870 0.03800
H 	H 	0.71452 0.40978 0.77019 0.03900
H 	H 	0.72132 0.41498 0.70395 0.03800
C 	C 	0.69528 0.30330 0.18727 -0.00400
C 	C 	0.65105 0.25174 0.20197 -0.03400
C 	C 	0.65545 0.25584 0.24052 -0.03500
C 	C 	0.70411 0.31151 0.26452 -0.00500
C 	C 	0.74995 0.36211 0.24984 -0.03400
C 	C 	0.74553 0.35802 0.21129 -0.03500
C 	C 	0.68521 0.30235 0.14792 0.04300
C 	C 	0.67530 0.30185 0.11514 -0.10300
C 	C 	0.70321 0.31896 0.30373 0.04300
C 	C 	0.70173 0.32623 0.33639 -0.10400
H 	H 	0.61215 0.20921 0.18358 0.04100
H 	H 	0.61993 0.21646 0.25166 0.03800
H 	H 	0.78782 0.40525 0.26821 0.04100
H 	H 	0.78000 0.39803 0.20013 0.03800
C 	C 	0.80247 0.62676 0.47996 0.00200
C 	C 	0.80671 0.65378 0.44858 -0.03600
C 	C 	0.84487 0.71853 0.45206 -0.04900
C 	C 	0.87748 0.75695 0.48729 0.02400
C 	C 	0.87311 0.72975 0.51869 -0.05000
C 	C 	0.83567 0.66493 0.51506 -0.03500
C 	C 	0.91938 0.82567 0.49128 -0.04300
C 	C 	0.90273 0.85531 0.47175 -0.06200
C 	C 	0.76302 0.55839 0.47588 0.01000
C 	C 	0.78926 0.52940 0.48261 -0.15100
H 	H 	0.78142 0.62460 0.42136 0.03700
H 	H 	0.84978 0.73875 0.42735 0.04000
H 	H 	0.89865 0.75884 0.54590 0.03900
H 	H 	0.83244 0.64440 0.53949 0.03700
H 	H 	0.96262 0.85247 0.51194 0.03800
H 	H 	0.85652 0.82903 0.45406 0.04300
H 	H 	0.71355 0.53143 0.46329 0.02800
H 	H 	0.83961 0.55662 0.49277 0.07500
C 	C 	0.79538 0.13425 0.46245 -0.00000
C 	C 	0.86112 0.16856 0.46710 -0.03600
C 	C 	0.88876 0.13776 0.46432 -0.05000
C 	C 	0.85109 0.07238 0.45781 0.02400
C 	C 	0.78548 0.03820 0.45245 -0.05000
C 	C 	0.75779 0.06897 0.45510 -0.03600
C 	C 	0.87987 0.03929 0.45557 -0.04300
C 	C 	0.92807 0.05529 0.48188 -0.06300
C 	C 	0.76604 0.16614 0.46890 0.00700
C 	C 	0.78310 0.21643 0.45401 -0.15900
H 	H 	0.89081 0.21897 0.47357 0.03500
H 	H 	0.93940 0.16469 0.46742 0.03900
H 	H 	0.75598 0.98776 0.44688 0.03900
H 	H 	0.70712 0.04208 0.45174 0.03500
H 	H 	0.85913 0.99922 0.43340 0.03900
H 	H 	0.94882 0.09524 0.50413 0.04300
H 	H 	0.72940 0.14760 0.48553 0.02600
H 	H 	0.81726 0.23279 0.43572 0.08000
C 	C 	0.34151 0.14647 0.46859 0.00300
C 	C 	0.30304 0.08122 0.46280 -0.03600
C 	C 	0.23800 0.04765 0.46021 -0.04900
C 	C 	0.21094 0.07906 0.46413 0.02400
C 	C 	0.24939 0.14443 0.46978 -0.04900
C 	C 	0.31442 0.17799 0.47251 -0.03500
C 	C 	0.14195 0.04304 0.46058 -0.04200
C 	C 	0.11663 0.05782 0.48537 -0.06300
C 	C 	0.41048 0.18157 0.47254 0.00800
C 	C 	0.44371 0.22934 0.45473 -0.14800
H 	H 	0.32351 0.05649 0.46010 0.03500
H 	H 	0.20869 0.99724 0.45546 0.03900
H 	H 	0.22891 0.16920 0.47191 0.04000
H 	H 	0.34375 0.22841 0.47789 0.03900
H 	H 	0.11165 0.00249 0.43840 0.04000
H 	H 	0.14688 0.09819 0.50765 0.04500
H 	H 	0.43369 0.16630 0.48877 0.03800
H 	H 	0.41961 0.24165 0.43648 0.07400
C 	C 	0.88476 0.77427 0.00990 0.02300
C 	C 	0.90943 0.74050 0.00701 -0.04900
C 	C 	0.87094 0.67643 0.00648 -0.03500
C 	C 	0.80728 0.64551 0.00883 0.00100
C 	C 	0.78312 0.67963 0.01296 -0.03500
C 	C 	0.82164 0.74373 0.01350 -0.04800
C 	C 	0.76633 0.57784 0.00857 0.01300
C 	C 	0.76340 0.53771 0.98205 -0.15400
C 	C 	0.92617 0.84215 0.01100 -0.03600
C 	C 	0.90876 0.86869 0.98900 -0.07000
H 	H 	0.95840 0.76388 0.00504 0.03900
H 	H 	0.89066 0.65092 0.00452 0.03700
H 	H 	0.73444 0.65643 0.01561 0.03700
H 	H 	0.80261 0.76971 0.01703 0.04100
H 	H 	0.73611 0.56065 0.02910 0.03200
H 	H 	0.79212 0.55515 0.96080 0.07800
H 	H 	0.97283 0.87009 0.02831 0.03800
H 	H 	0.86203 0.84088 0.97179 0.04500
C 	C 	0.82316 0.16451 0.97107 -0.00700
C 	C 	0.84297 0.15553 0.00500 -0.03000
C 	C 	0.86540 0.11982 0.00525 -0.04600
C 	C 	0.86928 0.09375 0.97160 0.01900
C 	C 	0.84987 0.10314 0.93781 -0.05000
C 	C 	0.82755 0.13889 0.93756 -0.03500
C 	C 	0.89057 0.05394 0.97139 -0.04000
C 	C 	0.94435 0.07311 0.99330 -0.07000
C 	C 	0.79915 0.20193 0.97033 0.01100
C 	C 	0.75248 0.18945 0.98829 -0.16800
H 	H 	0.84099 0.17616 0.03110 0.03800
H 	H 	0.87922 0.11197 0.03151 0.04100
H 	H 	0.85229 0.08289 0.91172 0.03800
H 	H 	0.81291 0.14604 0.91128 0.02900
H 	H 	0.86462 0.01076 0.95110 0.03700
H 	H 	0.97328 0.11888 0.01115 0.04900
H 	H 	0.81522 0.23545 0.95186 0.02400
H 	H 	0.73546 0.15479 0.00604 0.08500
C 	C 	0.22351 0.07947 0.00122 0.02900
C 	C 	0.26629 0.09833 0.03415 -0.05200
C 	C 	0.32947 0.12568 0.03315 -0.03000
C 	C 	0.35062 0.13468 0.99923 -0.00200
C 	C 	0.30784 0.11549 0.96614 -0.03300
C 	C 	0.24449 0.08774 0.96709 -0.05500
C 	C 	0.41662 0.16000 0.99835 0.00200
C 	C 	0.45302 0.20961 0.98253 -0.14900
C 	C 	0.15603 0.04655 0.00246 -0.03800
C 	C 	0.12134 0.05995 0.98303 -0.06800
H 	H 	0.25047 0.09138 0.06053 0.04100
H 	H 	0.36200 0.13965 0.05876 0.03800
H 	H 	0.32337 0.12077 0.93966 0.03600
H 	H 	0.21155 0.07144 0.94129 0.04100
H 	H 	0.43723 0.14183 0.01404 0.04400
H 	H 	0.43295 0.22955 0.96836 0.07200
H 	H 	0.13562 0.01410 0.02146 0.03900
H 	H 	0.14329 0.09678 0.96685 0.04500
