data_crystal

_cell_length_a 20.97489
_cell_length_b 21.54288
_cell_length_c 31.14854
_cell_angle_alpha 60.79453
_cell_angle_beta  118.91139
_cell_angle_gamma 133.20651

_symmetry_space_group_name_	'P 1'
_symmetry_space_group_name_H-M	'P 1'

loop_
_symmetry_equiv_pos_as_xyz
  x,y,z

loop_
_atom_site_label
_atom_site_type_symbol
_atom_site_fract_x
_atom_site_fract_y
_atom_site_fract_z
_atom_site_charge
Co	Co	0.02106 0.99493 0.04580 1.18800
Co	Co	0.06677 0.87512 0.05061 1.19900
O 	O 	0.00443 0.08531 0.03453 -0.40800
C 	C 	0.03570 0.19348 0.13506 0.40600
C 	C 	0.15737 0.84980 0.15523 0.39300
O 	O 	0.05704 0.16045 0.12216 -0.35300
O 	O 	0.10376 0.83364 0.17675 -0.31300
O 	O 	0.01885 0.90390 0.07841 -0.74600
Co	Co	0.09960 0.04644 0.55575 1.19700
Co	Co	0.04039 0.11457 0.59690 1.19600
Co	Co	0.11696 0.90721 0.55733 1.18300
O 	O 	0.09648 0.14591 0.54466 -0.40200
C 	C 	0.13605 0.23813 0.66537 0.39300
C 	C 	0.13101 0.81101 0.66574 0.41600
O 	O 	0.13511 0.00422 0.49063 -0.35400
O 	O 	0.08287 0.17236 0.69667 -0.35400
O 	O 	0.13942 0.22488 0.62879 -0.31900
O 	O 	0.09966 0.80274 0.61974 -0.38100
O 	O 	0.10896 0.84296 0.67912 -0.32700
O 	O 	0.07838 0.94668 0.58435 -0.75400
C 	C 	0.04498 0.02189 0.84245 0.12200
C 	C 	0.02688 0.01238 0.88440 -0.01700
H 	H 	0.07109 0.06692 0.90170 0.12100
N 	N 	0.11847 0.10499 0.82180 -0.02300
O 	O 	0.13443 0.17739 0.81767 0.00400
C 	C 	0.09677 0.06297 0.33653 -0.01200
C 	C 	0.10154 0.08119 0.37627 0.13000
H 	H 	0.14625 0.11409 0.31390 0.13200
O 	O 	0.14952 0.19979 0.39939 -0.01800
C 	C 	0.18447 0.32853 0.66767 -0.19100
C 	C 	0.16564 0.38588 0.62581 0.29100
F 	F 	0.12231 0.36827 0.57955 -0.35000
F 	F 	0.17513 0.51765 0.59057 -0.34700
C 	C 	0.16103 0.69943 0.72359 0.30700
F 	F 	0.08190 0.64278 0.73759 -0.32700
F 	F 	0.17545 0.58300 0.75408 -0.34800
C 	C 	0.09251 0.34880 0.11206 0.30100
C 	C 	0.10282 0.28126 0.14539 -0.19400
F 	F 	0.04024 0.34215 0.06442 -0.36100
F 	F 	0.12408 0.48707 0.09520 -0.34600
F 	F 	0.15044 0.80449 0.08020 -0.43800
O 	O 	0.13926 0.00263 0.00852 -0.39100
O 	O 	0.05255 0.00331 0.62392 -0.55200
C 	C 	0.07162 0.01488 0.46212 0.31700
O 	O 	0.03543 0.02314 0.48249 -0.34400
C 	C 	0.02254 0.98406 0.32154 -0.05500
C 	C 	0.04025 0.01414 0.40783 -0.04900
Co	Co	0.01671 0.87373 0.62880 1.19400
H 	H 	0.13746 0.51340 0.18637 0.15500
C 	C 	0.13266 0.42140 0.12836 0.25700
N 	N 	0.16807 0.16854 0.38392 -0.01500
O 	O 	0.17269 0.10850 0.81001 -0.00400
C 	C 	0.17313 0.76704 0.12946 0.30000
O 	O 	0.17250 0.90803 0.11235 -0.33100
O 	O 	0.15903 0.07461 0.05323 -0.36000
C 	C 	0.17399 0.78367 0.16869 -0.18000
C 	C 	0.15664 0.28908 0.19457 0.29600
F 	F 	0.16951 0.22591 0.22676 -0.38500
O 	O 	0.00016 0.94481 0.74670 -0.33600
H 	H 	0.18526 0.56350 0.68625 0.15800
C 	C 	0.19100 0.46141 0.63164 0.25800
C 	C 	0.18344 0.42734 0.17830 -0.13200
C 	C 	0.19521 0.78858 0.70075 -0.18300
F 	F 	0.19791 0.70081 0.10209 -0.34600
C 	C 	0.19127 0.06874 0.02897 0.41500
C 	C 	0.20499 0.66726 0.72835 0.25800
C 	C 	0.19405 0.35988 0.21150 0.25100
C 	C 	0.19936 0.71509 0.14058 0.26000
C 	C 	0.20306 0.74744 0.21932 0.31000
O 	O 	0.00067 0.94058 0.25224 -0.32900
C 	C 	0.20949 0.54934 0.19328 -0.11400
F 	F 	0.20665 0.76357 0.25774 -0.34300
C 	C 	0.99600 0.98656 0.26691 0.31200
Co	Co	0.99303 0.84398 0.13634 1.19400
O 	O 	0.99707 0.74452 0.09118 -0.34700
O 	O 	0.98657 0.04860 0.23382 -0.34500
O 	O 	0.96401 0.97253 0.97140 -0.31000
C 	C 	0.98937 0.95069 0.82001 -0.04800
Co	Co	0.95544 0.05181 0.09127 1.19100
O 	O 	0.95548 0.84882 0.99206 -0.31900
O 	O 	0.95203 0.15140 0.13481 -0.34800
C 	C 	0.97635 0.96990 0.76456 0.32400
O 	O 	0.24485 0.99701 0.59108 -0.33500
O 	O 	0.23762 0.11451 0.56347 -0.33100
O 	O 	0.24389 0.21958 0.37096 0.02800
C 	C 	0.67746 0.25911 0.02690 0.23700
C 	C 	0.58474 0.20977 0.02299 -0.13300
C 	C 	0.55197 0.24482 0.02778 0.23800
C 	C 	0.61072 0.32911 0.03524 -0.13400
C 	C 	0.70250 0.37907 0.03900 0.22600
C 	C 	0.73611 0.34472 0.03419 -0.12600
H 	H 	0.53941 0.14306 0.01895 0.14300
H 	H 	0.58517 0.35492 0.03986 0.14100
H 	H 	0.80778 0.38235 0.03867 0.15300
C 	C 	0.75025 0.30725 0.52677 0.21200
C 	C 	0.65751 0.25813 0.52313 -0.11900
C 	C 	0.62762 0.28457 0.53821 0.23200
C 	C 	0.68658 0.36627 0.54908 -0.13000
C 	C 	0.77651 0.42089 0.54739 0.22600
C 	C 	0.81009 0.39015 0.53867 -0.11800
H 	H 	0.60912 0.19896 0.50956 0.16500
H 	H 	0.66193 0.38813 0.55825 0.13800
H 	H 	0.88150 0.42941 0.54188 0.15900
C 	C 	0.26838 0.63484 0.20100 0.22200
C 	C 	0.24390 0.51271 0.19168 0.22400
C 	C 	0.33645 0.56033 0.19894 -0.12600
C 	C 	0.39524 0.64522 0.20563 0.22700
C 	C 	0.36169 0.68251 0.20725 -0.11900
H 	H 	0.36258 0.53280 0.19673 0.14200
H 	H 	0.40712 0.74953 0.21080 0.14300
C 	C 	0.31564 0.68611 0.70130 0.21300
C 	C 	0.40852 0.73662 0.70438 -0.11900
C 	C 	0.43917 0.71060 0.68953 0.23100
C 	C 	0.38125 0.62820 0.67978 -0.13100
C 	C 	0.29145 0.57289 0.68181 0.22800
C 	C 	0.25684 0.60320 0.68978 -0.12100
H 	H 	0.45636 0.79608 0.71760 0.16600
H 	H 	0.40641 0.60664 0.67078 0.13800
Co	Co	0.92726 0.90074 0.18214 1.19400
Co	Co	0.87702 0.02055 0.17416 1.20700
C 	C 	0.91496 0.69949 0.09487 0.40400
O 	O 	0.77520 0.98993 0.11064 -0.31800
O 	O 	0.92095 0.98683 0.14680 -0.73800
C 	C 	0.79295 0.05097 0.06880 0.38300
O 	O 	0.95380 0.81639 0.19590 -0.39800
C 	C 	0.75476 0.82585 0.19976 0.41200
O 	O 	0.95032 0.93362 0.10714 -0.55400
C 	C 	0.95370 0.91482 0.95794 0.30500
O 	O 	0.85240 0.07287 0.04921 -0.31400
O 	O 	0.80405 0.89443 0.21750 -0.37300
O 	O 	0.79158 0.81234 0.18376 -0.34300
O 	O 	0.89554 0.72762 0.11314 -0.34200
Co	Co	0.95571 0.94162 0.66975 1.19500
C 	C 	0.28121 0.08195 0.57393 0.40800
Co	Co	0.94741 0.08999 0.66764 1.18300
C 	C 	0.92789 0.75965 0.55674 0.39000
O 	O 	0.96410 0.19103 0.60323 -0.37900
O 	O 	0.98969 0.04683 0.64608 -0.74700
C 	C 	0.92643 0.17583 0.55866 0.41500
O 	O 	0.94950 0.83820 0.67644 -0.39800
C 	C 	0.78223 0.91714 0.64891 0.40300
O 	O 	0.93684 0.13032 0.54871 -0.34400
O 	O 	0.81726 0.00148 0.63468 -0.33500
O 	O 	0.81858 0.88880 0.64480 -0.35000
O 	O 	0.92325 0.99391 0.73448 -0.35800
O 	O 	0.98286 0.82454 0.52652 -0.36700
O 	O 	0.91533 0.77534 0.58775 -0.33300
C 	C 	0.92176 0.86884 0.84335 -0.00700
C 	C 	0.95506 0.93194 0.90543 -0.04800
C 	C 	0.90085 0.86032 0.88361 0.12800
N 	N 	0.82300 0.77917 0.90145 -0.01700
H 	H 	0.87919 0.81342 0.82705 0.12300
O 	O 	0.76377 0.77915 0.90511 0.01600
O 	O 	0.80749 0.70496 0.90984 0.01200
C 	C 	0.95788 0.91853 0.35130 0.12300
C 	C 	0.96744 0.93387 0.39414 -0.02500
H 	H 	0.92024 0.88144 0.41809 0.11800
N 	N 	0.88095 0.83716 0.33760 -0.02300
O 	O 	0.89098 0.79289 0.32736 -0.01500
O 	O 	0.80229 0.80287 0.34068 0.00800
C 	C 	0.23674 0.48124 0.67918 -0.13800
C 	C 	0.25409 0.42300 0.72103 0.25800
C 	C 	0.23160 0.34940 0.71485 0.29600
F 	F 	0.25688 0.29888 0.75465 -0.34700
F 	F 	0.29943 0.44177 0.76706 -0.34000
C 	C 	0.53820 0.80833 0.62958 0.26300
C 	C 	0.52967 0.77183 0.67982 -0.13600
C 	C 	0.60275 0.77635 0.71955 0.25800
C 	C 	0.68339 0.81683 0.70913 0.29500
C 	C 	0.69207 0.85398 0.65892 -0.19400
C 	C 	0.61806 0.84693 0.61920 0.31400
F 	F 	0.62330 0.87680 0.57047 -0.32800
F 	F 	0.46730 0.80249 0.59072 -0.34000
F 	F 	0.75353 0.82092 0.74786 -0.39400
F 	F 	0.59463 0.73900 0.76818 -0.35100
C 	C 	0.27958 0.72284 0.70668 -0.12400
C 	C 	0.31811 0.81377 0.68876 0.25400
C 	C 	0.28162 0.84624 0.69209 0.29100
F 	F 	0.32439 0.93407 0.67966 -0.34400
F 	F 	0.38545 0.86947 0.66432 -0.36100
F 	F 	0.24326 0.36456 0.25982 -0.35400
C 	C 	0.54710 0.67653 0.24728 0.25800
C 	C 	0.49052 0.69752 0.20534 -0.13800
C 	C 	0.51667 0.74937 0.15914 0.25600
C 	C 	0.59861 0.78054 0.15515 0.29500
C 	C 	0.65771 0.76442 0.19793 -0.19600
C 	C 	0.62903 0.70790 0.24312 0.30200
F 	F 	0.68018 0.68257 0.28288 -0.34900
F 	F 	0.52069 0.62243 0.29141 -0.34100
F 	F 	0.62038 0.82612 0.10959 -0.36900
F 	F 	0.46052 0.76585 0.11743 -0.35200
C 	C 	0.23222 0.69709 0.23028 0.26600
C 	C 	0.23105 0.68149 0.19069 -0.12800
F 	F 	0.26262 0.66482 0.27914 -0.34200
C 	C 	0.74445 0.17746 0.53919 0.25300
C 	C 	0.78475 0.26882 0.52146 -0.12400
C 	C 	0.85733 0.32258 0.49846 0.25900
C 	C 	0.89719 0.28788 0.50098 0.30800
C 	C 	0.86210 0.19845 0.52406 -0.18100
C 	C 	0.77709 0.14272 0.53419 0.29000
F 	F 	0.73154 0.05457 0.54561 -0.34200
F 	F 	0.67858 0.12333 0.56454 -0.36100
F 	F 	0.97398 0.34255 0.48485 -0.32700
F 	F 	0.88879 0.40750 0.47350 -0.34600
C 	C 	0.82518 0.57475 0.50558 0.25700
C 	C 	0.83179 0.51299 0.54996 -0.13500
C 	C 	0.86522 0.53085 0.59714 0.25700
C 	C 	0.88848 0.60781 0.59979 0.29300
C 	C 	0.87963 0.66848 0.55527 -0.19300
C 	C 	0.84613 0.65031 0.50820 0.29500
F 	F 	0.83528 0.70696 0.46476 -0.36900
F 	F 	0.79223 0.55839 0.45974 -0.34100
F 	F 	0.92163 0.62426 0.64561 -0.35400
F 	F 	0.87128 0.47163 0.64052 -0.34200
C 	C 	0.46502 0.22292 0.50618 0.25900
C 	C 	0.53627 0.22448 0.54651 -0.13700
C 	C 	0.52491 0.18453 0.59629 0.26500
C 	C 	0.44398 0.14528 0.60567 0.31100
C 	C 	0.37206 0.14195 0.56529 -0.19300
C 	C 	0.38339 0.18204 0.51557 0.29700
F 	F 	0.31462 0.17980 0.47628 -0.37300
F 	F 	0.47581 0.26320 0.45802 -0.34900
F 	F 	0.43601 0.11203 0.65409 -0.32500
F 	F 	0.59402 0.18738 0.63573 -0.33700
C 	C 	0.71521 0.20061 0.99605 0.33900
C 	C 	0.71538 0.21388 0.03625 -0.17900
C 	C 	0.74740 0.17988 0.08609 0.27900
C 	C 	0.77500 0.12966 0.09633 0.28500
C 	C 	0.77483 0.11512 0.05647 -0.15900
C 	C 	0.74556 0.15189 0.00614 0.24400
F 	F 	0.74299 0.13781 0.96717 -0.31400
F 	F 	0.68463 0.23354 0.94746 -0.34400
F 	F 	0.79830 0.09178 0.14531 -0.43900
F 	F 	0.74806 0.19226 0.12512 -0.34800
C 	C 	0.74738 0.52911 0.02087 0.22800
C 	C 	0.76339 0.46479 0.05176 -0.12900
C 	C 	0.82217 0.47410 0.09989 0.25600
C 	C 	0.86486 0.54706 0.11662 0.30500
C 	C 	0.84887 0.61132 0.08560 -0.19700
C 	C 	0.78751 0.60018 0.03844 0.30000
F 	F 	0.76979 0.66055 0.00862 -0.38100
F 	F 	0.69028 0.52091 0.97440 -0.32800
F 	F 	0.92462 0.55724 0.16224 -0.36000
F 	F 	0.83613 0.41130 0.13098 -0.34500
C 	C 	0.43325 0.15462 0.07420 0.25900
C 	C 	0.45680 0.19228 0.02793 -0.16600
C 	C 	0.39593 0.19976 0.98256 0.28500
C 	C 	0.31242 0.16959 0.98336 0.32600
C 	C 	0.28750 0.12914 0.02949 -0.22700
C 	C 	0.34977 0.12476 0.07500 0.30200
F 	F 	0.32790 0.08807 0.11998 -0.36600
F 	F 	0.49264 0.14963 0.11850 -0.35000
F 	F 	0.25376 0.17605 0.93905 -0.36500
F 	F 	0.41895 0.23888 0.93768 -0.33700
