data_crystal

_cell_length_a 18.42041
_cell_length_b 18.73252
_cell_length_c 34.77491
_cell_angle_alpha 95.44210
_cell_angle_beta  95.44239
_cell_angle_gamma 126.40815

_symmetry_space_group_name_	'P 1'
_symmetry_space_group_name_H-M	'P 1'

loop_
_symmetry_equiv_pos_as_xyz
  x,y,z

loop_
_atom_site_label
_atom_site_type_symbol
_atom_site_fract_x
_atom_site_fract_y
_atom_site_fract_z
_atom_site_charge
C 	C 	0.89245 0.97908 0.96525 0.16900
N 	N 	0.85098 0.89005 0.96561 -0.13200
C 	C 	0.90160 0.85883 0.96586 0.15500
N 	N 	0.99263 0.91626 0.96533 -0.13200
C 	C 	0.03404 0.00493 0.96532 0.15100
N 	N 	0.98400 0.03629 0.96566 -0.14000
C 	C 	0.96385 0.04169 0.49340 0.13500
N 	N 	0.90504 0.95229 0.49434 -0.13000
C 	C 	0.93445 0.90092 0.49226 0.15100
N 	N 	0.02286 0.93898 0.48946 -0.11900
C 	C 	0.08240 0.02848 0.48910 0.14000
N 	N 	0.05283 0.08000 0.49088 -0.12700
Cu	Cu	0.73776 0.32066 0.95961 0.93400
Cu	Cu	0.68188 0.22319 0.03572 0.87200
Cu	Cu	0.59953 0.30038 0.00669 0.89700
Cu	Cu	0.57585 0.32557 0.92354 0.91200
C 	C 	0.68699 0.30031 0.87640 0.33500
O 	O 	0.79597 0.45465 0.96060 -0.33600
C 	C 	0.64071 0.31582 0.09176 0.32900
O 	O 	0.59615 0.25714 0.95284 -0.63200
O 	O 	0.72324 0.33120 0.01456 -0.64700
O 	O 	0.79274 0.25616 0.96564 -0.34700
O 	O 	0.67248 0.14875 0.99123 -0.42000
O 	O 	0.65701 0.34743 0.88484 -0.35600
O 	O 	0.48151 0.27867 0.99855 -0.35700
C 	C 	0.42161 0.23804 0.96517 0.31300
C 	C 	0.75453 0.49038 0.97050 0.30100
O 	O 	0.66653 0.43753 0.97169 -0.38900
O 	O 	0.44771 0.25928 0.93140 -0.36700
O 	O 	0.72956 0.28783 0.90444 -0.33600
C 	C 	0.74446 0.17567 0.97518 0.31400
O 	O 	0.61197 0.33900 0.06256 -0.35600
O 	O 	0.67492 0.27122 0.08571 -0.39100
H 	H 	0.55244 0.19074 0.94415 0.17900
H 	H 	0.77089 0.38961 0.03241 0.19400
Cu	Cu	0.64010 0.21871 0.50594 0.93400
Cu	Cu	0.74484 0.27940 0.43184 0.87400
Cu	Cu	0.65796 0.35402 0.45918 0.90000
Cu	Cu	0.62457 0.37077 0.54123 0.91100
C 	C 	0.65536 0.26548 0.58876 0.33300
O 	O 	0.50316 0.15684 0.50333 -0.34400
C 	C 	0.65696 0.32337 0.37490 0.32800
O 	O 	0.70002 0.35711 0.51330 -0.63500
O 	O 	0.63202 0.23455 0.45115 -0.64400
O 	O 	0.70488 0.16434 0.50040 -0.34000
O 	O 	0.81705 0.28349 0.47624 -0.42200
O 	O 	0.60384 0.29073 0.57961 -0.36300
O 	O 	0.67402 0.46723 0.46731 -0.35900
C 	C 	0.71060 0.52492 0.50097 0.31100
C 	C 	0.46388 0.19354 0.49146 0.29800
O 	O 	0.51442 0.28078 0.49172 -0.38000
O 	O 	0.68820 0.49699 0.53430 -0.36500
O 	O 	0.67127 0.22578 0.56118 -0.33800
C 	C 	0.78689 0.21079 0.49119 0.31100
O 	O 	0.62660 0.34607 0.40296 -0.35200
O 	O 	0.69666 0.28435 0.38133 -0.39000
H 	H 	0.76710 0.40208 0.52290 0.17800
H 	H 	0.57410 0.18679 0.43263 0.19500
C 	C 	0.68098 0.26696 0.63058 -0.11600
C 	C 	0.72590 0.34793 0.65811 0.12300
C 	C 	0.72972 0.34615 0.69854 0.06600
C 	C 	0.69844 0.26528 0.71179 0.01800
C 	C 	0.66581 0.18724 0.68450 0.06700
C 	C 	0.65185 0.18634 0.64388 0.12600
C 	C 	0.69328 0.26060 0.75392 0.01800
C 	C 	0.77354 0.29830 0.78182 0.06700
C 	C 	0.77249 0.31144 0.82226 0.13000
C 	C 	0.68845 0.27675 0.83485 -0.11300
C 	C 	0.60626 0.22786 0.80683 0.12400
C 	C 	0.60921 0.22429 0.76649 0.06700
Br	Br	0.63925 0.08156 0.70291 -0.14500
Br	Br	0.78414 0.46149 0.64034 -0.21000
Br	Br	0.88689 0.38391 0.85968 -0.16600
Br	Br	0.49919 0.17418 0.72863 -0.15000
Br	Br	0.58581 0.07344 0.60711 -0.15800
Br	Br	0.77299 0.45304 0.73554 -0.14600
Br	Br	0.88483 0.33280 0.76450 -0.14400
Br	Br	0.48957 0.16417 0.82381 -0.20600
C 	C 	0.63487 0.33015 0.33410 -0.11300
C 	C 	0.66904 0.41502 0.32437 0.12300
C 	C 	0.66153 0.42315 0.28459 0.06800
C 	C 	0.62691 0.34840 0.25470 0.01700
C 	C 	0.58856 0.26285 0.26445 0.06500
C 	C 	0.58802 0.25312 0.30402 0.12600
C 	C 	0.63608 0.36063 0.21343 0.01800
C 	C 	0.55910 0.33272 0.18559 0.06700
C 	C 	0.56126 0.32306 0.14512 0.12400
C 	C 	0.64283 0.34745 0.13277 -0.11400
C 	C 	0.72388 0.39055 0.16100 0.12600
C 	C 	0.71958 0.39251 0.20119 0.06500
Br	Br	0.54115 0.16006 0.22378 -0.15800
Br	Br	0.73059 0.52077 0.36525 -0.17800
Br	Br	0.45192 0.27350 0.10700 -0.18700
Br	Br	0.82630 0.43348 0.23916 -0.15200
Br	Br	0.51917 0.13422 0.31703 -0.18600
Br	Br	0.69953 0.53654 0.27091 -0.13800
Br	Br	0.45036 0.30558 0.20301 -0.14300
Br	Br	0.84094 0.45008 0.14458 -0.18600
C 	C 	0.87303 0.80603 0.49626 -0.03500
C 	C 	0.89964 0.77617 0.52604 -0.08200
C 	C 	0.84542 0.68468 0.52841 0.18800
C 	C 	0.76428 0.62197 0.50048 -0.10600
C 	C 	0.73671 0.65212 0.47112 -0.03400
C 	C 	0.79041 0.74392 0.46912 0.14900
H 	H 	0.96316 0.82389 0.54708 0.08900
O 	O 	0.87457 0.65594 0.55661 -0.28000
H 	H 	0.67399 0.60430 0.44967 0.08600
O 	O 	0.76460 0.77209 0.43937 -0.25700
H 	H 	0.72512 0.78589 0.44985 0.16200
H 	H 	0.84923 0.66034 0.57988 0.17300
C 	C 	0.84220 0.17760 0.49476 -0.11400
C 	C 	0.89396 0.18596 0.46590 -0.04000
C 	C 	0.93782 0.14530 0.46632 0.14300
C 	C 	0.93133 0.09699 0.49612 -0.03400
C 	C 	0.88399 0.09302 0.52619 -0.08600
C 	C 	0.84014 0.13364 0.52581 0.18900
H 	H 	0.89733 0.22101 0.44226 0.05400
O 	O 	0.98570 0.15166 0.43722 -0.26600
H 	H 	0.87971 0.05689 0.54951 0.08200
O 	O 	0.79351 0.12838 0.55527 -0.25900
H 	H 	0.83907 0.18295 0.57568 0.16700
H 	H 	0.94017 0.09893 0.41601 0.15700
C 	C 	0.17996 0.07023 0.48942 -0.03500
C 	C 	0.22384 0.12157 0.46098 -0.08200
C 	C 	0.31506 0.15686 0.45967 0.18400
C 	C 	0.36370 0.14239 0.48752 -0.10400
C 	C 	0.31888 0.08904 0.51529 -0.04300
C 	C 	0.22794 0.05406 0.51668 0.14700
H 	H 	0.18693 0.13319 0.43956 0.08700
O 	O 	0.35724 0.20720 0.43175 -0.27200
H 	H 	0.35580 0.07791 0.53696 0.08200
O 	O 	0.18599 0.00406 0.54474 -0.26600
H 	H 	0.19876 0.04834 0.56761 0.16000
H 	H 	0.34559 0.16326 0.40900 0.16300
C 	C 	0.80043 0.58744 0.97140 -0.10600
C 	C 	0.78776 0.63554 0.99995 -0.03600
C 	C 	0.81593 0.72250 0.99713 0.15000
C 	C 	0.85821 0.76262 0.96580 -0.03900
C 	C 	0.87116 0.71471 0.93735 -0.08100
C 	C 	0.84294 0.62782 0.94009 0.18500
H 	H 	0.75457 0.60484 0.02400 0.06800
O 	O 	0.80572 0.76955 0.02597 -0.26400
H 	H 	0.90399 0.74528 0.91321 0.08500
O 	O 	0.85219 0.58057 0.91092 -0.26600
H 	H 	0.91378 0.59629 0.91936 0.17300
H 	H 	0.74434 0.75394 0.01704 0.15800
C 	C 	0.83877 0.01406 0.96389 -0.04600
C 	C 	0.84393 0.06238 0.93438 -0.08200
C 	C 	0.81217 0.11429 0.93748 0.19000
C 	C 	0.77400 0.11758 0.97023 -0.11400
C 	C 	0.76406 0.06503 0.99858 -0.03200
C 	C 	0.79590 0.01318 0.99542 0.14000
H 	H 	0.87549 0.06215 0.90965 0.08400
O 	O 	0.81573 0.15915 0.90787 -0.26500
H 	H 	0.73393 0.06628 0.02369 0.04700
O 	O 	0.79058 0.96664 0.02457 -0.26000
H 	H 	0.73085 0.90572 0.01611 0.15700
H 	H 	0.87756 0.21845 0.91447 0.17500
C 	C 	0.32322 0.18078 0.96636 -0.10800
C 	C 	0.26520 0.19438 0.94502 -0.03300
C 	C 	0.17078 0.13796 0.94480 0.14700
C 	C 	0.13376 0.06741 0.96637 -0.03500
C 	C 	0.19219 0.05444 0.98793 -0.07900
C 	C 	0.28630 0.11010 0.98766 0.20000
H 	H 	0.29322 0.24833 0.92830 0.07400
O 	O 	0.11431 0.14861 0.92175 -0.26400
H 	H 	0.16441 0.00032 0.00455 0.07900
O 	O 	0.34104 0.09141 0.00594 -0.30600
H 	H 	0.36119 0.12414 0.03348 0.17300
H 	H 	0.11342 0.19403 0.93840 0.16000
