data_crystal

_cell_length_a 18.19899
_cell_length_b 17.48807
_cell_length_c 46.52771
_cell_angle_alpha 90.73195
_cell_angle_beta  91.00750
_cell_angle_gamma 110.81124

_symmetry_space_group_name_	'P 1'
_symmetry_space_group_name_H-M	'P 1'

loop_
_symmetry_equiv_pos_as_xyz
  x,y,z

loop_
_atom_site_label
_atom_site_type_symbol
_atom_site_fract_x
_atom_site_fract_y
_atom_site_fract_z
_atom_site_charge
O 	O 	0.09321 0.90055 0.75428 -0.70700
Ni	Ni	0.11558 0.00152 0.77925 1.10600
O 	O 	0.13163 0.81275 0.70600 -0.40200
Ni	Ni	0.19049 0.90858 0.73509 1.06600
O 	O 	0.17762 0.00252 0.71239 -0.39200
O 	O 	0.21020 0.99498 0.80177 -0.40000
O 	O 	0.02229 0.00581 0.75555 -0.70000
O 	O 	0.11031 0.09424 0.80591 -0.35600
H 	H 	0.07286 0.85008 0.76558 0.15700
H 	H 	0.03328 0.05939 0.74637 0.16300
C 	C 	0.19876 0.07687 0.72419 0.28800
C 	C 	0.05773 0.79332 0.69740 0.32000
C 	C 	0.27446 0.99829 0.78857 0.28700
C 	C 	0.04308 0.08717 0.81779 0.27400
O 	O 	0.18916 0.08694 0.75214 -0.36500
O 	O 	0.27454 0.99288 0.76028 -0.40900
Ni	Ni	0.36635 0.78135 0.40169 1.10000
O 	O 	0.31831 0.67906 0.37634 -0.70500
Ni	Ni	0.21077 0.68173 0.36856 1.10100
O 	O 	0.46929 0.75906 0.40674 -0.35600
O 	O 	0.40324 0.63140 0.42374 -0.40600
O 	O 	0.40570 0.83905 0.36435 -0.39600
Ni	Ni	0.30653 0.57864 0.39610 1.06900
O 	O 	0.30935 0.93751 0.42439 -0.41200
O 	O 	0.24486 0.60480 0.42850 -0.41700
O 	O 	0.17411 0.58418 0.34107 -0.38100
O 	O 	0.25545 0.77663 0.39757 -0.70500
O 	O 	0.41351 0.89018 0.42415 -0.38000
O 	O 	0.11357 0.70929 0.35780 -0.37400
O 	O 	0.18986 0.84151 0.34904 -0.41700
Ni	Ni	0.25740 0.88522 0.38637 1.06900
H 	H 	0.34662 0.68186 0.35818 0.16400
H 	H 	0.22974 0.76311 0.41634 0.15200
C 	C 	0.17100 0.59657 0.42513 0.29100
O 	O 	0.35849 0.94327 0.36405 -0.40200
C 	C 	0.46972 0.68920 0.41691 0.27200
C 	C 	0.18599 0.51650 0.34780 0.30200
C 	C 	0.41699 0.91635 0.36115 0.32900
C 	C 	0.12009 0.78322 0.35015 0.29300
C 	C 	0.37097 0.92728 0.43726 0.27600
O 	O 	0.14327 0.60787 0.39987 -0.36800
O 	O 	0.20627 0.50545 0.37456 -0.40700
Ni	Ni	0.36894 0.66589 0.13367 1.09800
O 	O 	0.26621 0.63701 0.10976 -0.69800
Ni	Ni	0.20703 0.69398 0.13339 1.09600
O 	O 	0.41244 0.58989 0.11120 -0.36100
O 	O 	0.29821 0.48057 0.11176 -0.40200
O 	O 	0.42766 0.75072 0.10393 -0.36600
Ni	Ni	0.20451 0.51967 0.10447 1.06700
O 	O 	0.48300 0.83769 0.15124 -0.39500
O 	O 	0.17822 0.49779 0.14656 -0.40100
O 	O 	0.10514 0.65831 0.10958 -0.37900
O 	O 	0.31217 0.72768 0.15547 -0.70300
O 	O 	0.46884 0.70408 0.15865 -0.37400
O 	O 	0.16827 0.77159 0.15726 -0.37000
O 	O 	0.27731 0.88315 0.14879 -0.39700
Ni	Ni	0.37320 0.84498 0.15089 1.06800
H 	H 	0.27555 0.66134 0.09049 0.14300
H 	H 	0.30639 0.71236 0.17594 0.16000
C 	C 	0.13158 0.52845 0.15953 0.32100
O 	O 	0.36535 0.84208 0.10717 -0.41000
C 	C 	0.36760 0.51785 0.10094 0.27700
C 	C 	0.09185 0.60169 0.08934 0.27700
C 	C 	0.39703 0.79969 0.09160 0.28800
C 	C 	0.21210 0.84858 0.16276 0.29400
C 	C 	0.50226 0.78239 0.16551 0.29800
O 	O 	0.15351 0.60801 0.16378 -0.37400
O 	O 	0.09908 0.53100 0.09507 -0.41500
O 	O 	0.05052 0.20762 0.25511 -0.38200
O 	O 	0.10675 0.07993 0.24965 -0.40000
O 	O 	0.02739 0.08428 0.21139 -0.36300
Ni	Ni	0.03817 0.04194 0.28469 1.06900
O 	O 	0.06037 0.15768 0.29946 -0.39600
C 	C 	0.06284 0.21856 0.28300 0.30200
C 	C 	0.07991 0.05722 0.22311 0.29100
C 	C 	0.95971 0.33610 0.20264 -0.07800
C 	C 	0.02809 0.38523 0.21763 -0.08800
C 	C 	0.08188 0.45373 0.20462 0.18800
C 	C 	0.06725 0.47340 0.17639 -0.12600
C 	C 	0.99543 0.42878 0.16248 -0.03600
C 	C 	0.94158 0.36034 0.17552 0.16100
O 	O 	0.15131 0.49752 0.21869 -0.28800
H 	H 	0.98326 0.44433 0.14088 0.06200
O 	O 	0.87431 0.31370 0.16077 -0.27200
H 	H 	0.83408 0.33701 0.16626 0.15000
H 	H 	0.14036 0.54121 0.22962 0.14500
C 	C 	0.17797 0.90166 0.17832 -0.10400
C 	C 	0.09791 0.88982 0.17457 -0.05100
C 	C 	0.06615 0.94271 0.18811 0.13200
C 	C 	0.11454 0.00799 0.20573 -0.08900
C 	C 	0.19472 0.02028 0.20920 -0.04400
C 	C 	0.22627 0.96699 0.19591 0.14900
H 	H 	0.06031 0.83999 0.16098 0.06500
O 	O 	0.98705 0.92781 0.18533 -0.28500
H 	H 	0.23243 0.07039 0.22266 0.06700
O 	O 	0.30450 0.97912 0.20001 -0.30400
H 	H 	0.30705 0.94701 0.21718 0.12900
H 	H 	0.98111 0.95772 0.16799 0.15500
C 	C 	0.08373 0.30039 0.29608 -0.11100
C 	C 	0.14751 0.36551 0.28579 -0.06100
C 	C 	0.17984 0.43786 0.30221 0.16700
C 	C 	0.14924 0.44427 0.32931 -0.11000
C 	C 	0.08256 0.38139 0.33869 -0.05000
C 	C 	0.04902 0.31017 0.32203 0.14700
H 	H 	0.17404 0.35880 0.26569 0.07400
O 	O 	0.24399 0.50020 0.29251 -0.29800
H 	H 	0.05719 0.38736 0.35913 0.06400
O 	O 	0.98517 0.24789 0.33198 -0.27500
H 	H 	0.22205 0.53530 0.28129 0.15200
C 	C 	0.04884 0.80206 0.34478 -0.10700
C 	C 	0.01338 0.82769 0.36760 -0.09000
C 	C 	0.95358 0.85871 0.36199 0.18900
C 	C 	0.93269 0.86824 0.33338 -0.12100
C 	C 	0.95633 0.82685 0.31141 -0.05700
C 	C 	0.01623 0.79577 0.31688 0.14300
H 	H 	0.03477 0.82747 0.38948 0.04100
H 	H 	0.93654 0.82912 0.28943 0.03800
O 	O 	0.04665 0.76517 0.29463 -0.29700
H 	H 	0.01535 0.70574 0.29372 0.14900
C 	C 	0.35964 0.02528 0.53663 -0.05800
C 	C 	0.39643 0.02038 0.51087 0.03600
C 	C 	0.40221 0.97371 0.46396 -0.06500
C 	C 	0.35609 0.99471 0.48420 -0.05000
H 	H 	0.30111 0.02805 0.53659 0.05200
H 	H 	0.29375 0.98225 0.48105 0.04000
C 	C 	0.01829 0.44771 0.47433 -0.01700
C 	C 	0.09198 0.47029 0.51972 -0.05500
C 	C 	0.08834 0.48451 0.49026 0.01800
S 	S 	0.02545 0.49742 0.44368 0.02600
C 	C 	0.11720 0.56493 0.44890 -0.08000
C 	C 	0.14407 0.55015 0.47604 -0.02400
H 	H 	0.14360 0.50391 0.53275 0.04600
H 	H 	0.20255 0.58351 0.48472 0.04200
C 	C 	0.58768 0.67570 0.47786 0.01400
C 	C 	0.58899 0.60220 0.46533 0.00600
C 	C 	0.57212 0.53115 0.48161 -0.06200
S 	S 	0.55879 0.59970 0.43145 0.00200
C 	C 	0.54174 0.68750 0.43084 -0.06100
C 	C 	0.56405 0.72451 0.45818 -0.01900
H 	H 	0.56936 0.47382 0.47165 0.04500
H 	H 	0.54690 0.77483 0.46540 0.04400
C 	C 	0.25310 0.14772 0.70852 -0.09000
C 	C 	0.29696 0.21974 0.72400 -0.06700
C 	C 	0.36556 0.27544 0.71261 0.17100
C 	C 	0.38951 0.26094 0.68519 -0.10800
C 	C 	0.33924 0.19632 0.66797 -0.05300
C 	C 	0.27089 0.13988 0.67945 0.16100
H 	H 	0.28094 0.23000 0.74564 0.07100
O 	O 	0.41169 0.34119 0.72906 -0.28900
H 	H 	0.35536 0.18705 0.64624 0.07100
O 	O 	0.22332 0.07607 0.66253 -0.27400
H 	H 	0.18407 0.09639 0.65358 0.14900
H 	H 	0.39251 0.38616 0.72442 0.14600
O 	O 	0.98734 0.65576 0.73272 -0.28400
H 	H 	0.02898 0.63273 0.73663 0.12700
C 	C 	0.01048 0.58570 0.01086 0.00100
S 	S 	0.09243 0.61975 0.03085 -0.01700
C 	C 	0.05081 0.60940 0.06299 -0.08900
C 	C 	0.96917 0.57376 0.05886 0.00100
H 	H 	0.05546 0.57008 0.96931 0.04700
H 	H 	0.92943 0.54715 0.07611 0.04500
C 	C 	0.45692 0.84394 0.01131 -0.00800
C 	C 	0.51625 0.88079 0.99176 -0.04200
C 	C 	0.51081 0.94599 0.97570 -0.01400
C 	C 	0.39648 0.94568 0.00256 -0.05100
C 	C 	0.39934 0.87789 0.01759 0.01600
S 	S 	0.46864 0.79337 0.04004 0.03200
C 	C 	0.39955 0.80806 0.06026 -0.08700
C 	C 	0.36696 0.85752 0.04515 -0.02300
H 	H 	0.56757 0.86326 0.99060 0.04000
H 	H 	0.33005 0.88683 0.05502 0.04300
H 	H 	0.62825 0.99089 0.95627 0.00400
C 	C 	0.40934 0.39957 0.04063 0.01700
C 	C 	0.48951 0.44661 0.04516 -0.00200
C 	C 	0.54168 0.46622 0.02231 -0.05500
S 	S 	0.49762 0.50568 0.07414 0.03800
C 	C 	0.40281 0.47081 0.08308 -0.07400
C 	C 	0.36039 0.41323 0.06199 -0.02500
H 	H 	0.59960 0.51299 0.02477 0.04800
H 	H 	0.29689 0.39186 0.05971 0.02500
H 	H 	0.03767 0.22110 0.79061 0.05400
C 	C 	0.48814 0.11052 0.83756 -0.10200
C 	C 	0.48325 0.13304 0.80904 -0.06300
C 	C 	0.41435 0.09549 0.79258 0.16800
C 	C 	0.35040 0.03248 0.80443 -0.09200
C 	C 	0.35718 0.00716 0.83251 -0.03400
C 	C 	0.42571 0.04574 0.84906 0.16000
H 	H 	0.53154 0.18231 0.80002 0.04900
O 	O 	0.40894 0.12174 0.76523 -0.28000
H 	H 	0.30872 0.95847 0.84171 0.04000
O 	O 	0.43060 0.02188 0.87679 -0.24800
H 	H 	0.45437 0.97901 0.87543 0.12200
H 	H 	0.38880 0.16718 0.76752 0.15800
Ni	Ni	0.62375 0.28441 0.90303 1.09900
O 	O 	0.64768 0.35513 0.86688 -0.69700
Ni	Ni	0.75606 0.35341 0.85880 1.09700
O 	O 	0.53194 0.31643 0.91632 -0.36300
O 	O 	0.55514 0.44160 0.89738 -0.40000
O 	O 	0.54247 0.18830 0.88061 -0.36000
Ni	Ni	0.65996 0.47019 0.87540 1.06600
O 	O 	0.61801 0.10518 0.90984 -0.40200
O 	O 	0.72087 0.47007 0.91265 -0.41500
O 	O 	0.78298 0.43416 0.82586 -0.38500
O 	O 	0.72616 0.27585 0.89258 -0.71100
O 	O 	0.60779 0.21098 0.93748 -0.38200
O 	O 	0.85771 0.32993 0.85276 -0.36300
O 	O 	0.79125 0.19197 0.85030 -0.41300
Ni	Ni	0.70532 0.16193 0.88148 1.06600
H 	H 	0.61042 0.33164 0.85059 0.15700
H 	H 	0.76459 0.29237 0.90887 0.15800
C 	C 	0.78724 0.45608 0.91234 0.27200
O 	O 	0.62595 0.15996 0.84986 -0.41900
C 	C 	0.53869 0.39312 0.91957 0.28900
C 	C 	0.77944 0.50741 0.82933 0.30100
C 	C 	0.55546 0.15853 0.85596 0.30500
C 	C 	0.85790 0.25471 0.85296 0.29900
C 	C 	0.60659 0.13535 0.93504 0.29800
O 	O 	0.81750 0.44491 0.88778 -0.36200
O 	O 	0.76155 0.53015 0.85457 -0.40100
Ni	Ni	0.58863 0.35690 0.62909 1.10000
O 	O 	0.68551 0.36506 0.60569 -0.70000
Ni	Ni	0.74664 0.32277 0.63343 1.09900
O 	O 	0.54353 0.40502 0.59606 -0.36100
O 	O 	0.65699 0.51649 0.59436 -0.40300
O 	O 	0.53946 0.24395 0.60954 -0.38500
Ni	Ni	0.75053 0.47449 0.59447 1.07200
O 	O 	0.52870 0.29565 0.69340 -0.40700
O 	O 	0.77469 0.51603 0.63586 -0.40500
O 	O 	0.83120 0.32055 0.60580 -0.36900
O 	O 	0.65895 0.33157 0.65859 -0.70100
O 	O 	0.48688 0.33854 0.65160 -0.37200
O 	O 	0.78301 0.25471 0.66214 -0.37800
O 	O 	0.65880 0.16163 0.66517 -0.40200
Ni	Ni	0.59734 0.23421 0.67958 1.07300
H 	H 	0.67093 0.32869 0.58841 0.15200
H 	H 	0.67989 0.37863 0.67222 0.15900
C 	C 	0.82891 0.50096 0.65103 0.31400
O 	O 	0.50914 0.17295 0.65097 -0.39100
C 	C 	0.58745 0.47229 0.58342 0.27200
C 	C 	0.85664 0.37836 0.58657 0.26900
C 	C 	0.51806 0.17435 0.62312 0.29100
C 	C 	0.73488 0.18261 0.66995 0.28700
C 	C 	0.47173 0.30222 0.67681 0.31500
O 	O 	0.82890 0.42586 0.65280 -0.36900
O 	O 	0.85322 0.45184 0.59150 -0.39800
Ni	Ni	0.01175 0.91843 0.72629 1.09500
O 	O 	0.02880 0.85067 0.69294 -0.38200
O 	O 	0.92486 0.81654 0.74159 -0.36000
O 	O 	0.85184 0.93144 0.74176 -0.40300
O 	O 	0.92731 0.93976 0.70221 -0.35700
O 	O 	0.98346 0.01741 0.81587 -0.39000
Ni	Ni	0.92491 0.97401 0.77691 1.06200
O 	O 	0.92623 0.86215 0.78783 -0.41800
C 	C 	0.91362 0.80198 0.76911 0.31300
C 	C 	0.87234 0.95837 0.71552 0.27700
Ni	Ni	0.95384 0.11663 0.23743 1.10800
O 	O 	0.88228 0.14325 0.26695 -0.69600
Ni	Ni	0.85490 0.04134 0.29058 1.10600
O 	O 	0.94415 0.19546 0.20686 -0.35500
O 	O 	0.84197 0.23381 0.21967 -0.39000
Ni	Ni	0.78410 0.14495 0.24947 1.07100
O 	O 	0.78270 0.04687 0.22502 -0.40300
O 	O 	0.77163 0.06078 0.31540 -0.38200
O 	O 	0.93773 0.02567 0.26471 -0.68400
O 	O 	0.85454 0.94401 0.31517 -0.36600
O 	O 	0.98477 0.01015 0.32393 -0.38200
H 	H 	0.90857 0.19335 0.27870 0.16000
H 	H 	0.91817 0.97215 0.25435 0.15000
C 	C 	0.75819 0.97276 0.23585 0.27200
C 	C 	0.91634 0.25322 0.21284 0.30200
C 	C 	0.70744 0.06607 0.30362 0.30500
C 	C 	0.92189 0.94454 0.32607 0.29000
O 	O 	0.76897 0.96182 0.26361 -0.36400
O 	O 	0.70106 0.06842 0.27538 -0.39300
H 	H 	0.04145 0.36798 0.23880 0.06200
C 	C 	0.70131 0.90517 0.21875 -0.09400
C 	C 	0.71023 0.90107 0.18893 -0.06800
C 	C 	0.64691 0.85364 0.17128 0.17500
C 	C 	0.57419 0.80976 0.18349 -0.10700
C 	C 	0.56821 0.80582 0.21341 -0.06500
C 	C 	0.63119 0.85345 0.23113 0.16200
H 	H 	0.76480 0.93824 0.17928 0.06400
O 	O 	0.65453 0.85483 0.14200 -0.27700
H 	H 	0.51280 0.77042 0.22293 0.04900
O 	O 	0.62151 0.85498 0.26028 -0.27800
H 	H 	0.63851 0.81096 0.26783 0.15500
H 	H 	0.67196 0.80856 0.13729 0.15400
C 	C 	0.49214 0.97011 0.34947 -0.12400
C 	C 	0.49308 0.01052 0.32357 -0.03400
C 	C 	0.56398 0.04710 0.30925 0.16600
C 	C 	0.63483 0.04292 0.32090 -0.09600
C 	C 	0.63431 0.00937 0.34824 -0.03900
C 	C 	0.56357 0.97338 0.36249 0.15600
H 	H 	0.43857 0.01089 0.31392 0.06100
O 	O 	0.56411 0.08856 0.28440 -0.29500
H 	H 	0.68840 0.00861 0.35811 0.07800
O 	O 	0.56401 0.93818 0.38864 -0.27500
H 	H 	0.57022 0.98232 0.40311 0.15000
H 	H 	0.54897 0.04614 0.26884 0.15700
H 	H 	0.93874 0.26081 0.32553 0.12600
O 	O 	0.92406 0.89066 0.38413 -0.29100
H 	H 	0.87676 0.84509 0.39022 0.15300
C 	C 	0.40097 0.02724 0.56249 0.00100
C 	C 	0.47304 0.01949 0.51114 0.01300
C 	C 	0.51407 0.01990 0.53681 -0.05800
C 	C 	0.47900 0.02895 0.56265 0.02000
S 	S 	0.39039 0.07620 0.59196 0.04000
C 	C 	0.48052 0.09888 0.60640 -0.07100
C 	C 	0.52341 0.06883 0.58742 -0.02100
S 	S 	0.48896 0.98344 0.47953 -0.00200
H 	H 	0.57323 0.01887 0.53667 0.05200
H 	H 	0.58696 0.08813 0.58871 0.03500
C 	C 	0.94801 0.40386 0.48778 -0.04100
C 	C 	0.95254 0.38509 0.51687 0.03200
C 	C 	0.02492 0.41493 0.53211 -0.01300
S 	S 	0.00627 0.41232 0.56696 0.01100
C 	C 	0.90838 0.36887 0.56429 -0.05500
C 	C 	0.88677 0.35958 0.53502 -0.03500
H 	H 	0.89187 0.38782 0.47645 0.04500
H 	H 	0.82702 0.34688 0.52727 0.02700
C 	C 	0.55565 0.60858 0.52301 -0.00300
C 	C 	0.57735 0.68082 0.50760 -0.05400
C 	C 	0.55463 0.53524 0.51062 0.01800
S 	S 	0.55984 0.60169 0.55845 0.02300
C 	C 	0.55452 0.50397 0.55952 -0.07100
C 	C 	0.55388 0.47574 0.53109 -0.03100
H 	H 	0.57819 0.73733 0.51768 0.04500
H 	H 	0.56459 0.42026 0.52561 0.03100
C 	C 	0.83343 0.00920 0.70116 -0.09900
C 	C 	0.75798 0.00400 0.70940 -0.03700
C 	C 	0.72536 0.06033 0.69935 0.15600
C 	C 	0.76715 0.12099 0.68001 -0.09800
C 	C 	0.84111 0.12400 0.67083 -0.06200
C 	C 	0.87449 0.06891 0.68134 0.16800
H 	H 	0.72537 0.95762 0.72425 0.04400
O 	O 	0.65298 0.05638 0.70864 -0.28400
H 	H 	0.87335 0.16979 0.65572 0.07400
O 	O 	0.94914 0.07674 0.67353 -0.28800
H 	H 	0.94224 0.04327 0.65563 0.16400
H 	H 	0.66382 0.09147 0.72628 0.13000
C 	C 	0.89681 0.56997 0.66258 -0.10900
C 	C 	0.91462 0.57701 0.69217 -0.05500
C 	C 	0.97372 0.64724 0.70356 0.17900
C 	C 	0.01476 0.71117 0.68529 -0.11900
C 	C 	0.00077 0.70127 0.65552 -0.07200
C 	C 	0.94232 0.63101 0.64411 0.19200
H 	H 	0.88082 0.52961 0.70648 0.05800
H 	H 	0.03272 0.74987 0.64130 0.06400
O 	O 	0.92762 0.62365 0.61500 -0.31000
H 	H 	0.96442 0.59847 0.60732 0.15900
C 	C 	0.86717 0.47415 0.99163 -0.00000
C 	C 	0.87294 0.50686 0.01953 -0.05300
C 	C 	0.94648 0.56075 0.02939 0.02100
C 	C 	0.00502 0.55235 0.98310 -0.07700
C 	C 	0.93158 0.49825 0.97321 0.03300
S 	S 	0.78527 0.44219 0.97151 0.00800
C 	C 	0.82759 0.45237 0.93946 -0.08300
C 	C 	0.90924 0.48561 0.94371 -0.02400
H 	H 	0.82252 0.48929 0.03332 0.04900
H 	H 	0.94964 0.51088 0.92652 0.05400
C 	C 	0.44946 0.97557 0.98044 -0.01500
S 	S 	0.47817 0.07105 0.96911 0.07500
C 	C 	0.56643 0.07811 0.95728 -0.09300
C 	C 	0.57581 0.00301 0.96181 0.03500
H 	H 	0.35813 0.97761 0.00920 0.04200
C 	C 	0.43680 0.37358 0.99200 -0.00200
C 	C 	0.38147 0.36481 0.01339 -0.05400
C 	C 	0.51467 0.42682 0.99571 0.02000
S 	S 	0.41694 0.35974 0.95699 0.03900
C 	C 	0.50587 0.41719 0.94512 -0.07500
C 	C 	0.55376 0.45127 0.96947 -0.02900
H 	H 	0.31912 0.33493 0.00878 0.04500
H 	H 	0.61583 0.48740 0.96834 0.03900
C 	C 	0.93170 0.24083 0.84801 -0.12200
C 	C 	0.95751 0.19606 0.86799 -0.04000
C 	C 	0.00723 0.15498 0.85943 0.14300
C 	C 	0.03096 0.15856 0.83071 -0.09000
C 	C 	0.01690 0.21536 0.81245 -0.10100
C 	C 	0.96662 0.25604 0.82091 0.19400
H 	H 	0.93406 0.18766 0.88945 0.03700
O 	O 	0.02861 0.10732 0.87866 -0.29000
O 	O 	0.94545 0.30368 0.80165 -0.29300
H 	H 	0.98394 0.35986 0.80504 0.15700
H 	H 	0.98547 0.05318 0.87766 0.16200
C 	C 	0.82155 0.57155 0.80929 -0.10300
C 	C 	0.78158 0.58728 0.78535 -0.06700
C 	C 	0.81500 0.65973 0.77010 0.17300
C 	C 	0.88793 0.71750 0.77931 -0.10400
C 	C 	0.93088 0.69793 0.80151 -0.05500
C 	C 	0.89822 0.62496 0.81635 0.17100
H 	H 	0.72319 0.54537 0.77938 0.04800
O 	O 	0.77386 0.67646 0.74757 -0.28500
H 	H 	0.98820 0.74104 0.80813 0.05100
O 	O 	0.93913 0.60862 0.83905 -0.27600
H 	H 	0.96905 0.57653 0.83064 0.15200
H 	H 	0.79082 0.65409 0.73025 0.16000
