data_crystal

_cell_length_a 11.40004
_cell_length_b 22.62115
_cell_length_c 16.22554
_cell_angle_alpha 89.99540
_cell_angle_beta  89.99567
_cell_angle_gamma 100.30621

_symmetry_space_group_name_	'P 1'
_symmetry_space_group_name_H-M	'P 1'

loop_
_symmetry_equiv_pos_as_xyz
  x,y,z

loop_
_atom_site_label
_atom_site_type_symbol
_atom_site_fract_x
_atom_site_fract_y
_atom_site_fract_z
_atom_site_charge
O 	O 	0.08054 0.23209 0.67042 -0.39800
C 	C 	0.05352 0.29840 0.96911 -0.04900
C 	C 	0.04972 0.21690 0.52683 -0.03400
O 	O 	0.08054 0.73209 0.67042 -0.39800
C 	C 	0.05352 0.79840 0.96911 -0.04900
C 	C 	0.04972 0.71690 0.52683 -0.03300
Ni	Ni	0.39024 0.32561 0.83967 1.10300
O 	O 	0.34504 0.39003 0.76363 -0.69900
Ni	Ni	0.29336 0.34069 0.66272 1.09900
O 	O 	0.48978 0.38472 0.91947 -0.36600
O 	O 	0.59725 0.43679 0.81558 -0.40600
O 	O 	0.24884 0.33028 0.91765 -0.36500
Ni	Ni	0.47175 0.45728 0.73225 1.06900
O 	O 	0.23735 0.19925 0.89221 -0.39900
O 	O 	0.56463 0.42979 0.63334 -0.39000
O 	O 	0.28048 0.40574 0.57500 -0.37800
O 	O 	0.31909 0.27601 0.74470 -0.70300
O 	O 	0.42579 0.25610 0.90778 -0.37100
O 	O 	0.22564 0.27512 0.58002 -0.36600
Ni	Ni	0.17565 0.22191 0.77882 1.06700
H 	H 	0.27596 0.40577 0.78609 0.15700
H 	H 	0.37719 0.25189 0.72384 0.16000
C 	C 	0.53573 0.37816 0.59440 0.30200
O 	O 	0.10256 0.28909 0.82865 -0.41200
C 	C 	0.57174 0.42939 0.89435 0.27100
C 	C 	0.33069 0.46299 0.58251 0.28800
C 	C 	0.13574 0.31026 0.90154 0.29400
C 	C 	0.12651 0.23702 0.59523 0.26600
C 	C 	0.35117 0.20443 0.91466 0.26800
O 	O 	0.46091 0.33413 0.62687 -0.39800
O 	O 	0.35627 0.48749 0.65535 -0.42200
Ni	Ni	0.64684 0.17629 0.33969 1.10300
O 	O 	0.69200 0.11188 0.26364 -0.69900
Ni	Ni	0.74366 0.16121 0.16271 1.09900
O 	O 	0.54728 0.11718 0.41950 -0.36600
O 	O 	0.43978 0.06516 0.31561 -0.40600
O 	O 	0.78824 0.17160 0.41765 -0.36500
Ni	Ni	0.56527 0.04463 0.23228 1.06900
O 	O 	0.79972 0.30267 0.39218 -0.39900
O 	O 	0.47239 0.07213 0.13339 -0.39000
O 	O 	0.75650 0.09617 0.07499 -0.37800
O 	O 	0.71798 0.22589 0.24470 -0.70300
O 	O 	0.61131 0.24579 0.40782 -0.37100
O 	O 	0.81140 0.22680 0.08000 -0.36600
O 	O 	0.95650 0.26980 0.17039 -0.39800
Ni	Ni	0.86142 0.28000 0.27880 1.06700
H 	H 	0.76108 0.09613 0.28608 0.15700
H 	H 	0.65987 0.25002 0.22387 0.16000
C 	C 	0.50129 0.12376 0.09445 0.30200
O 	O 	0.93453 0.21284 0.32867 -0.41200
C 	C 	0.46527 0.07254 0.39437 0.27100
C 	C 	0.70627 0.03892 0.08250 0.28800
C 	C 	0.90133 0.19166 0.40156 0.29400
C 	C 	0.91052 0.26489 0.09521 0.26600
C 	C 	0.68591 0.29748 0.41466 0.26800
O 	O 	0.57611 0.16779 0.12691 -0.39800
O 	O 	0.68070 0.01441 0.15534 -0.42200
C 	C 	0.98732 0.28502 0.02680 -0.03400
C 	C 	0.98352 0.20352 0.46914 -0.04900
C 	C 	0.36612 0.49835 0.51028 -0.05200
C 	C 	0.40606 0.53087 0.45427 -0.05000
C 	C 	0.63092 0.47105 0.95426 -0.05000
C 	C 	0.67084 0.50356 0.01027 -0.05200
C 	C 	0.42855 0.13863 0.02828 -0.04900
C 	C 	0.38321 0.16317 0.97406 -0.03800
C 	C 	0.65384 0.33875 0.47403 -0.03700
C 	C 	0.60849 0.36329 0.52824 -0.04900
Ni	Ni	0.39024 0.82561 0.83967 1.10300
O 	O 	0.34504 0.89002 0.76363 -0.69900
Ni	Ni	0.29336 0.84069 0.66272 1.09900
O 	O 	0.48978 0.88472 0.91947 -0.36600
O 	O 	0.59725 0.93679 0.81558 -0.40600
O 	O 	0.24884 0.83028 0.91765 -0.36500
Ni	Ni	0.47175 0.95728 0.73225 1.06900
O 	O 	0.23735 0.69925 0.89221 -0.39900
O 	O 	0.56463 0.92979 0.63334 -0.39000
O 	O 	0.28048 0.90575 0.57500 -0.37800
O 	O 	0.31909 0.77601 0.74470 -0.70300
O 	O 	0.42579 0.75610 0.90778 -0.37100
O 	O 	0.22564 0.77512 0.58002 -0.36600
Ni	Ni	0.17565 0.72191 0.77882 1.06700
H 	H 	0.27596 0.90577 0.78609 0.15700
H 	H 	0.37719 0.75189 0.72384 0.16000
C 	C 	0.53573 0.87816 0.59440 0.30200
O 	O 	0.10256 0.78909 0.82865 -0.41200
C 	C 	0.57174 0.92939 0.89435 0.27100
C 	C 	0.33069 0.96299 0.58251 0.28800
C 	C 	0.13574 0.81026 0.90154 0.29400
C 	C 	0.12651 0.73702 0.59523 0.26600
C 	C 	0.35117 0.70442 0.91466 0.26800
O 	O 	0.46091 0.83413 0.62687 -0.39800
O 	O 	0.35627 0.98749 0.65535 -0.42100
Ni	Ni	0.64684 0.67629 0.33969 1.10300
O 	O 	0.69200 0.61188 0.26364 -0.69900
Ni	Ni	0.74366 0.66121 0.16271 1.09900
O 	O 	0.54728 0.61718 0.41950 -0.36600
O 	O 	0.43978 0.56516 0.31561 -0.40600
O 	O 	0.78824 0.67160 0.41765 -0.36500
Ni	Ni	0.56527 0.54463 0.23228 1.06900
O 	O 	0.79972 0.80267 0.39218 -0.39900
O 	O 	0.47239 0.57213 0.13339 -0.39000
O 	O 	0.75650 0.59617 0.07499 -0.37800
O 	O 	0.71798 0.72589 0.24470 -0.70300
O 	O 	0.61131 0.74579 0.40782 -0.37100
O 	O 	0.81140 0.72680 0.08000 -0.36600
O 	O 	0.95650 0.76980 0.17039 -0.39800
Ni	Ni	0.86142 0.78000 0.27880 1.06700
H 	H 	0.76108 0.59613 0.28608 0.15700
H 	H 	0.65987 0.75002 0.22387 0.16000
C 	C 	0.50129 0.62376 0.09445 0.30200
O 	O 	0.93453 0.71284 0.32867 -0.41200
C 	C 	0.46527 0.57254 0.39437 0.27100
C 	C 	0.70627 0.53892 0.08250 0.28800
C 	C 	0.90133 0.69166 0.40156 0.29400
C 	C 	0.91052 0.76489 0.09521 0.26600
C 	C 	0.68591 0.79748 0.41466 0.26800
O 	O 	0.57611 0.66779 0.12691 -0.39800
O 	O 	0.68070 0.51441 0.15534 -0.42200
C 	C 	0.98732 0.78502 0.02680 -0.03400
C 	C 	0.98352 0.70352 0.46914 -0.04900
C 	C 	0.36612 0.99835 0.51028 -0.05200
C 	C 	0.40606 0.03087 0.45427 -0.05100
C 	C 	0.63092 0.97105 0.95426 -0.05000
C 	C 	0.67084 0.00356 0.01027 -0.05200
C 	C 	0.42855 0.63863 0.02828 -0.04900
C 	C 	0.38321 0.66317 0.97406 -0.03700
C 	C 	0.65384 0.83875 0.47403 -0.03700
C 	C 	0.60849 0.86330 0.52824 -0.04900
