data_crystal

_cell_length_a 16.07199
_cell_length_b 16.51089
_cell_length_c 47.71467
_cell_angle_alpha 90.73460
_cell_angle_beta  90.87236
_cell_angle_gamma 110.57087

_symmetry_space_group_name_	'P 1'
_symmetry_space_group_name_H-M	'P 1'

loop_
_symmetry_equiv_pos_as_xyz
  x,y,z

loop_
_atom_site_label
_atom_site_type_symbol
_atom_site_fract_x
_atom_site_fract_y
_atom_site_fract_z
_atom_site_charge
O 	O 	0.52023 0.38726 0.93550 -0.42300
O 	O 	0.47637 0.23642 0.89394 -0.31200
O 	O 	0.54913 0.14164 0.92489 -0.47800
O 	O 	0.54302 0.24354 0.95289 -0.43500
O 	O 	0.55015 0.16285 0.86866 -0.38800
C 	C 	0.56038 0.43853 0.95544 0.37400
C 	C 	0.47416 0.17300 0.87392 0.25400
C 	C 	0.56801 0.18030 0.94855 0.46300
O 	O 	0.54375 0.13355 0.69556 -0.38300
O 	O 	0.57754 0.19537 0.60569 -0.36300
O 	O 	0.55008 0.33318 0.62299 -0.45200
C 	C 	0.48952 0.17267 0.68729 0.25000
C 	C 	0.59673 0.12911 0.61057 0.17400
C 	C 	0.59590 0.37277 0.60350 0.41200
O 	O 	0.50094 0.20753 0.66134 -0.34700
O 	O 	0.56566 0.08537 0.63297 -0.44100
Ni	Ni	0.10419 0.05700 0.78613 1.08800
O 	O 	0.00330 0.96059 0.80593 -0.67200
O 	O 	0.07481 0.15024 0.81615 -0.30100
O 	O 	0.18354 0.04532 0.81819 -0.37900
O 	O 	0.22074 0.03096 0.73169 -0.40100
O 	O 	0.07560 0.95674 0.75871 -0.71500
O 	O 	0.22114 0.14219 0.76306 -0.33200
O 	O 	0.09133 0.77517 0.75219 -0.39300
Ni	Ni	0.17199 0.91700 0.75251 1.04800
H 	H 	0.02925 0.94089 0.82247 0.14300
H 	H 	0.05790 0.97270 0.74009 0.17900
O 	O 	0.25402 0.96568 0.79404 -0.36000
C 	C 	0.98837 0.14048 0.82305 0.22000
C 	C 	0.25599 0.02922 0.81501 0.24600
C 	C 	0.00795 0.73977 0.73896 0.30300
C 	C 	0.26280 0.10832 0.74207 0.23700
Ni	Ni	0.36588 0.73307 0.42272 1.10700
O 	O 	0.31492 0.64357 0.39384 -0.72700
Ni	Ni	0.20944 0.67346 0.38197 1.09400
O 	O 	0.43643 0.67283 0.43856 -0.45100
O 	O 	0.33254 0.55845 0.45255 -0.43600
O 	O 	0.48184 0.80987 0.39852 -0.31600
Ni	Ni	0.26802 0.53151 0.41491 1.07600
O 	O 	0.39415 0.90852 0.42650 -0.46200
O 	O 	0.19833 0.56102 0.44409 -0.40100
O 	O 	0.15782 0.56788 0.35477 -0.36700
O 	O 	0.26584 0.76920 0.41029 -0.71300
O 	O 	0.40282 0.80871 0.45483 -0.41400
O 	O 	0.12203 0.73115 0.36752 -0.36800
O 	O 	0.22947 0.86287 0.35943 -0.41600
Ni	Ni	0.31368 0.88281 0.39438 1.07000
H 	H 	0.35713 0.64757 0.37891 0.16900
H 	H 	0.23378 0.77030 0.42810 0.14600
C 	C 	0.15575 0.61203 0.44072 0.30600
O 	O 	0.41379 0.87901 0.36792 -0.37600
C 	C 	0.39235 0.63054 0.45815 0.42400
C 	C 	0.16140 0.49341 0.36367 0.28900
C 	C 	0.49041 0.87064 0.37715 0.23400
C 	C 	0.14492 0.81192 0.35895 0.28600
C 	C 	0.38303 0.87585 0.45045 0.35700
O 	O 	0.12620 0.62106 0.41530 -0.36700
O 	O 	0.16430 0.48465 0.39029 -0.43400
Ni	Ni	0.19262 0.72281 0.17924 1.09500
O 	O 	0.25551 0.81466 0.15273 -0.72600
Ni	Ni	0.34272 0.76528 0.13865 1.11000
O 	O 	0.12127 0.79887 0.19565 -0.34000
O 	O 	0.24443 0.92420 0.20402 -0.39500
O 	O 	0.10949 0.68320 0.14446 -0.37100
Ni	Ni	0.31785 0.92719 0.16882 1.07500
O 	O 	0.16110 0.50519 0.18130 -0.38500
O 	O 	0.40366 0.89501 0.19463 -0.40100
O 	O 	0.38830 0.84079 0.10825 -0.43000
O 	O 	0.28629 0.67666 0.16612 -0.71700
O 	O 	0.12787 0.61990 0.20389 -0.36200
O 	O 	0.38976 0.69328 0.11893 -0.45800
O 	O 	0.27654 0.58124 0.10615 -0.42500
Ni	Ni	0.23480 0.55953 0.14706 1.07300
H 	H 	0.22158 0.81725 0.13534 0.15200
H 	H 	0.33297 0.68156 0.18015 0.16700
C 	C 	0.47067 0.87007 0.18826 0.26000
O 	O 	0.14040 0.57714 0.12364 -0.38500
C 	C 	0.15591 0.88561 0.20415 0.24100
C 	C 	0.37140 0.90621 0.11485 0.42300
C 	C 	0.13534 0.65272 0.12199 0.27600
C 	C 	0.33521 0.65334 0.10006 0.42300
C 	C 	0.10452 0.53208 0.19715 0.27000
O 	O 	0.46260 0.81857 0.16497 -0.33200
O 	O 	0.40176 0.94295 0.13837 -0.47100
Ni	Ni	0.06979 0.08895 0.32193 1.07800
O 	O 	0.12446 0.06908 0.28397 -0.36400
O 	O 	0.08208 0.26875 0.29497 -0.39600
C 	C 	0.08476 0.05575 0.25865 0.27200
C 	C 	0.09978 0.27871 0.32185 0.29200
O 	O 	0.05495 0.11633 0.25083 -0.35300
O 	O 	0.11876 0.21707 0.33480 -0.42200
C 	C 	0.04196 0.46203 0.21939 0.04600
C 	C 	0.99428 0.37532 0.21465 -0.08100
H 	H 	0.04735 0.49764 0.20190 -0.04300
H 	H 	0.97704 0.34231 0.23009 0.01700
C 	C 	0.53937 0.88162 0.21449 -0.08100
H 	H 	0.52016 0.91006 0.23285 0.05800
C 	C 	0.09633 0.93003 0.22363 0.01400
C 	C 	0.12765 0.01531 0.23576 -0.11400
H 	H 	0.11547 0.91914 0.20349 -0.03100
H 	H 	0.19348 0.03984 0.24261 0.08300
C 	C 	0.58646 0.90978 0.35695 -0.01600
H 	H 	0.54834 0.91386 0.37360 -0.01600
C 	C 	0.14552 0.37015 0.33136 -0.10500
C 	C 	0.10909 0.41099 0.34960 -0.08900
H 	H 	0.19114 0.40827 0.31636 0.06900
H 	H 	0.05920 0.37106 0.36345 0.06800
C 	C 	0.01364 0.83935 0.33435 -0.02400
C 	C 	0.07356 0.85205 0.35729 -0.12100
H 	H 	0.03357 0.81399 0.31549 0.06500
H 	H 	0.05769 0.87125 0.37776 0.05100
C 	C 	0.48019 0.98076 0.50463 -0.05000
C 	C 	0.41067 0.99344 0.51843 0.00300
C 	C 	0.42648 0.02499 0.54511 -0.09100
C 	C 	0.49311 0.00983 0.55976 0.11100
C 	C 	0.56328 0.99684 0.54586 -0.10700
C 	C 	0.54757 0.96639 0.51893 0.01100
C 	C 	0.47983 0.98262 0.47715 0.09100
C 	C 	0.43839 0.94380 0.46012 -0.14300
C 	C 	0.49451 0.01258 0.58795 -0.12800
C 	C 	0.53223 0.05255 0.60692 0.14900
H 	H 	0.34690 0.98079 0.50821 0.02400
H 	H 	0.38598 0.05693 0.55474 0.06500
H 	H 	0.58815 0.93463 0.50903 0.03200
C 	C 	0.03424 0.54067 0.50921 -0.05400
C 	C 	0.00989 0.58536 0.53020 0.03900
C 	C 	0.01306 0.45115 0.51043 0.04400
C 	C 	0.07163 0.58481 0.48521 0.08600
C 	C 	0.10593 0.61232 0.46399 -0.12900
H 	H 	0.02744 0.65421 0.52881 0.02700
H 	H 	0.03425 0.41585 0.49446 0.03200
C 	C 	0.45362 0.54552 0.51629 -0.05600
C 	C 	0.48409 0.57064 0.54293 -0.02100
C 	C 	0.51897 0.52159 0.55727 -0.01500
C 	C 	0.51652 0.44372 0.54471 -0.05600
C 	C 	0.48643 0.41832 0.51802 -0.02200
C 	C 	0.45242 0.46809 0.50346 -0.01400
C 	C 	0.44665 0.60566 0.50063 0.15100
C 	C 	0.42894 0.63931 0.48276 -0.22300
C 	C 	0.53463 0.38848 0.56007 0.14800
C 	C 	0.56059 0.36331 0.57843 -0.21900
H 	H 	0.48848 0.63338 0.55110 0.03400
H 	H 	0.54408 0.54180 0.57862 0.03300
H 	H 	0.48492 0.35687 0.50955 0.03400
H 	H 	0.42941 0.44904 0.48185 0.03400
C 	C 	0.36447 0.15159 0.73148 -0.05900
C 	C 	0.39507 0.15775 0.70205 -0.08000
H 	H 	0.36326 0.09823 0.74443 0.03700
H 	H 	0.38317 0.20636 0.69025 0.06700
C 	C 	0.05322 0.59863 0.02348 0.02200
C 	C 	0.02986 0.59196 0.05173 0.01400
C 	C 	0.08091 0.65034 0.07225 0.05700
C 	C 	0.11175 0.67255 0.09499 -0.11300
H 	H 	0.11879 0.63607 0.01708 0.03000
C 	C 	0.48480 0.08599 0.00884 -0.13300
C 	C 	0.41745 0.00816 0.00831 0.03600
C 	C 	0.40589 0.96404 0.03171 -0.05700
C 	C 	0.45261 0.00483 0.05567 -0.03800
C 	C 	0.52082 0.08146 0.05607 -0.04200
C 	C 	0.53130 0.12614 0.03288 0.01800
C 	C 	0.53090 0.10083 0.98747 0.25300
C 	C 	0.56479 0.13199 0.96874 -0.34700
C 	C 	0.40705 0.99147 0.07706 0.17100
C 	C 	0.37385 0.95881 0.09587 -0.27900
H 	H 	0.39101 0.97477 0.98823 0.02000
H 	H 	0.35618 0.90019 0.03220 0.04900
H 	H 	0.54840 0.11440 0.07607 0.04100
H 	H 	0.58196 0.18898 0.03234 0.02600
C 	C 	0.49981 0.48839 0.01778 -0.01000
C 	C 	0.41817 0.49228 0.01067 -0.04600
C 	C 	0.38681 0.53734 0.02834 0.00700
C 	C 	0.44649 0.59332 0.04717 -0.09500
C 	C 	0.53314 0.60207 0.05003 0.00900
C 	C 	0.56284 0.55711 0.03183 -0.05100
C 	C 	0.52479 0.43174 0.00392 0.09400
C 	C 	0.54162 0.41455 0.98217 -0.16600
C 	C 	0.41734 0.63903 0.06234 0.18500
C 	C 	0.37428 0.65760 0.07700 -0.24300
H 	H 	0.37621 0.45191 0.99403 0.05000
H 	H 	0.31567 0.52163 0.03007 0.03600
H 	H 	0.57561 0.64223 0.06649 0.02900
H 	H 	0.63199 0.57063 0.03041 0.04600
C 	C 	0.39946 0.14114 0.84757 -0.06700
C 	C 	0.32578 0.05907 0.84345 -0.06200
H 	H 	0.42591 0.17053 0.82811 0.05700
H 	H 	0.29509 0.03214 0.86331 0.05900
Ni	Ni	0.58871 0.31745 0.92222 1.10500
O 	O 	0.64853 0.40537 0.89473 -0.71800
Ni	Ni	0.74956 0.36549 0.88440 1.09200
O 	O 	0.63370 0.50033 0.95139 -0.42300
Ni	Ni	0.70275 0.52143 0.91492 1.06900
O 	O 	0.76910 0.49092 0.94586 -0.39400
O 	O 	0.80252 0.46338 0.85650 -0.36500
O 	O 	0.68965 0.27654 0.91286 -0.71200
O 	O 	0.83813 0.30369 0.87186 -0.36100
O 	O 	0.72778 0.17382 0.86472 -0.42000
Ni	Ni	0.64322 0.15954 0.89787 1.07100
H 	H 	0.60425 0.40260 0.88006 0.16500
H 	H 	0.72234 0.27600 0.93082 0.14500
C 	C 	0.79883 0.42946 0.94337 0.28800
C 	C 	0.79989 0.54147 0.86262 0.24800
C 	C 	0.81280 0.22006 0.86472 0.26800
O 	O 	0.83176 0.41848 0.91895 -0.37600
O 	O 	0.80738 0.56573 0.88954 -0.40100
Ni	Ni	0.77091 0.31660 0.68013 1.08800
O 	O 	0.70428 0.22091 0.65324 -0.71300
Ni	Ni	0.61815 0.27097 0.63852 1.10300
O 	O 	0.83848 0.23487 0.69608 -0.36100
O 	O 	0.71335 0.11400 0.70413 -0.40200
O 	O 	0.85046 0.35881 0.64566 -0.38600
Ni	Ni	0.63561 0.10924 0.66883 1.06900
O 	O 	0.80861 0.53583 0.68029 -0.40100
O 	O 	0.67170 0.35721 0.66851 -0.72900
O 	O 	0.84226 0.42665 0.70453 -0.37200
O 	O 	0.66468 0.43869 0.60910 -0.43300
Ni	Ni	0.71824 0.47088 0.64948 1.07000
H 	H 	0.73769 0.21674 0.63599 0.14800
H 	H 	0.62564 0.35136 0.68232 0.16700
O 	O 	0.80262 0.45233 0.62337 -0.40000
C 	C 	0.80001 0.15230 0.70559 0.25800
C 	C 	0.82192 0.38367 0.62238 0.28300
C 	C 	0.85704 0.51139 0.69928 0.27100
Ni	Ni	0.97050 0.86568 0.77556 1.06900
O 	O 	0.92683 0.08639 0.80841 -0.40700
Ni	Ni	0.88992 0.96229 0.81784 1.06100
O 	O 	0.82817 0.96736 0.77964 -0.37300
O 	O 	0.87010 0.76666 0.79512 -0.37400
O 	O 	0.95263 0.78003 0.74257 -0.40100
C 	C 	0.86826 0.98064 0.75513 0.24700
C 	C 	0.85863 0.77178 0.82311 0.23900
O 	O 	0.90383 0.92254 0.74772 -0.37200
O 	O 	0.83905 0.83826 0.83266 -0.41700
Ni	Ni	0.85647 0.98099 0.28618 1.08000
O 	O 	0.95400 0.07990 0.30792 -0.70500
Ni	Ni	0.98392 0.16839 0.27695 1.06900
O 	O 	0.89036 0.89080 0.31458 -0.32900
O 	O 	0.03699 0.96639 0.31329 -0.37800
O 	O 	0.77428 0.99199 0.31762 -0.37200
O 	O 	0.72673 0.00941 0.23312 -0.40800
O 	O 	0.88184 0.07703 0.25869 -0.73600
O 	O 	0.74346 0.89540 0.25987 -0.34300
O 	O 	0.00907 0.24344 0.24264 -0.30500
O 	O 	0.87578 0.26306 0.25232 -0.38300
Ni	Ni	0.79004 0.12292 0.25291 1.04900
H 	H 	0.92724 0.10077 0.32382 0.13400
H 	H 	0.90085 0.06103 0.24026 0.16800
O 	O 	0.71225 0.08082 0.29291 -0.36400
C 	C 	0.97605 0.90819 0.32533 0.18600
C 	C 	0.70059 0.01118 0.31209 0.24100
C 	C 	0.96050 0.29435 0.23923 0.16200
C 	C 	0.69533 0.92801 0.24043 0.24400
C 	C 	0.62373 0.87341 0.21688 -0.07000
H 	H 	0.65129 0.86479 0.19690 0.05900
C 	C 	0.60810 0.97535 0.33482 -0.01400
H 	H 	0.64510 0.97277 0.31847 -0.02800
H 	H 	0.62687 0.01060 0.55586 0.05400
C 	C 	0.96005 0.54103 0.55206 -0.10200
C 	C 	0.93822 0.45129 0.55306 0.03800
C 	C 	0.96333 0.40692 0.53225 -0.10900
C 	C 	0.89693 0.40582 0.57634 0.03500
C 	C 	0.86181 0.37794 0.59737 -0.10700
H 	H 	0.93853 0.57623 0.56801 0.05500
H 	H 	0.94546 0.33805 0.53360 0.05000
C 	C 	0.85432 0.11180 0.72484 -0.09100
C 	C 	0.82847 0.02271 0.73111 -0.06200
H 	H 	0.91631 0.15606 0.73282 0.05800
H 	H 	0.77095 0.97859 0.72033 0.05100
C 	C 	0.90845 0.58046 0.72215 -0.07100
C 	C 	0.97732 0.65944 0.71694 -0.10200
H 	H 	0.88451 0.56765 0.74327 0.06000
H 	H 	0.98979 0.67438 0.69467 0.05200
C 	C 	0.91047 0.49761 0.01161 0.02400
C 	C 	0.98974 0.55826 0.00334 -0.12300
C 	C 	0.94973 0.53208 0.06006 -0.05900
C 	C 	0.88652 0.49088 0.03985 -0.04500
C 	C 	0.86372 0.43628 0.99130 0.03900
C 	C 	0.83346 0.41178 0.96869 -0.11800
H 	H 	0.00568 0.56565 0.98107 0.09100
H 	H 	0.93408 0.52378 0.08235 0.04300
H 	H 	0.82091 0.45275 0.04619 0.04100
C 	C 	0.86580 0.18700 0.84383 -0.09800
C 	C 	0.95534 0.19466 0.84516 -0.08200
H 	H 	0.82357 0.14196 0.82831 0.06700
H 	H 	0.99617 0.22975 0.86274 0.05000
C 	C 	0.81350 0.60944 0.83901 -0.03200
C 	C 	0.84812 0.69595 0.84444 -0.06300
H 	H 	0.75323 0.57172 0.84926 -0.01500
H 	H 	0.90778 0.73371 0.83504 0.00600
