data_crystal

_cell_length_a 26.03174
_cell_length_b 26.42380
_cell_length_c 35.16273
_cell_angle_alpha 95.49010
_cell_angle_beta  95.48715
_cell_angle_gamma 125.83250

_symmetry_space_group_name_	'P 1'
_symmetry_space_group_name_H-M	'P 1'

loop_
_symmetry_equiv_pos_as_xyz
  x,y,z

loop_
_atom_site_label
_atom_site_type_symbol
_atom_site_fract_x
_atom_site_fract_y
_atom_site_fract_z
_atom_site_charge
C 	C 	0.00740 0.05273 0.00976 0.11700
N 	N 	0.97446 0.98865 0.00286 -0.13800
C 	C 	0.00686 0.96307 0.00124 0.11400
N 	N 	0.07208 0.00152 0.00582 -0.14100
C 	C 	0.10514 0.06557 0.01262 0.12500
N 	N 	0.07275 0.09123 0.01426 -0.14500
C 	C 	0.89118 0.96929 0.45632 0.12500
N 	N 	0.95664 0.00977 0.46355 -0.14300
C 	C 	0.99147 0.98734 0.47014 0.12700
N 	N 	0.96078 0.92427 0.46905 -0.14400
C 	C 	0.89538 0.88368 0.46206 0.12400
N 	N 	0.86048 0.90613 0.45539 -0.14500
Cu	Cu	0.68974 0.28497 0.01059 0.92500
Cu	Cu	0.69706 0.22897 0.92258 0.87200
Cu	Cu	0.72759 0.36571 0.94778 0.89900
Cu	Cu	0.68981 0.40585 0.01922 0.89500
C 	C 	0.69488 0.34313 0.08546 0.29500
O 	O 	0.59567 0.24451 0.01179 -0.37500
C 	C 	0.69634 0.30198 0.86727 0.30000
O 	O 	0.73767 0.37883 0.00294 -0.64300
O 	O 	0.67268 0.27381 0.95279 -0.64100
O 	O 	0.74264 0.25311 0.01897 -0.36600
O 	O 	0.69752 0.18372 0.96099 -0.42900
O 	O 	0.69869 0.39151 0.07379 -0.38700
O 	O 	0.77825 0.45554 0.94749 -0.38300
C 	C 	0.76779 0.49315 0.96676 0.29400
C 	C 	0.56759 0.26879 0.99793 0.29400
O 	O 	0.60108 0.32163 0.98438 -0.39000
O 	O 	0.71755 0.46985 0.98428 -0.39800
O 	O 	0.71430 0.31377 0.06586 -0.36300
C 	C 	0.74129 0.21288 0.99296 0.28900
O 	O 	0.73752 0.35366 0.89381 -0.39900
O 	O 	0.66800 0.24502 0.87598 -0.41900
H 	H 	0.78358 0.40738 0.01596 0.15900
H 	H 	0.62702 0.25449 0.94239 0.16400
Cu	Cu	0.68148 0.30097 0.43865 0.92500
Cu	Cu	0.69751 0.25818 0.52073 0.86500
Cu	Cu	0.59793 0.27674 0.50011 0.89500
Cu	Cu	0.55769 0.29746 0.42292 0.89300
C 	C 	0.62838 0.29264 0.36129 0.29800
O 	O 	0.72094 0.39336 0.43704 -0.37800
C 	C 	0.65573 0.29712 0.58163 0.29300
O 	O 	0.58436 0.25217 0.44486 -0.63900
O 	O 	0.68969 0.31637 0.49582 -0.64200
O 	O 	0.72550 0.25975 0.43478 -0.37600
O 	O 	0.66985 0.19508 0.47647 -0.44700
O 	O 	0.57763 0.28818 0.37017 -0.39200
O 	O 	0.50706 0.23155 0.50148 -0.38700
C 	C 	0.46590 0.23109 0.47614 0.30100
C 	C 	0.69441 0.41999 0.44917 0.29800
O 	O 	0.63841 0.38572 0.45996 -0.39300
O 	O 	0.48603 0.27145 0.45190 -0.39700
O 	O 	0.65704 0.27489 0.38333 -0.36900
C 	C 	0.70492 0.20843 0.44938 0.30100
O 	O 	0.61408 0.29756 0.55719 -0.38300
O 	O 	0.70434 0.30053 0.57029 -0.42300
H 	H 	0.55523 0.20565 0.43524 0.16000
H 	H 	0.71989 0.36142 0.50910 0.17400
C 	C 	0.69088 0.30779 0.82613 -0.11400
C 	C 	0.72102 0.29281 0.80063 0.12300
C 	C 	0.71174 0.29552 0.76112 -0.09800
C 	C 	0.67461 0.31459 0.74691 0.00000
C 	C 	0.64616 0.33154 0.77263 0.05600
C 	C 	0.65449 0.32775 0.81207 -0.02200
N 	N 	0.75963 0.27683 0.81394 -0.20200
H 	H 	0.73388 0.28312 0.74135 0.05300
C 	C 	0.66471 0.31504 0.70479 -0.00100
N 	N 	0.61128 0.35179 0.75978 -0.19200
H 	H 	0.63226 0.34005 0.83182 0.03200
C 	C 	0.61087 0.26043 0.68000 -0.09700
C 	C 	0.60541 0.25463 0.63944 0.11900
C 	C 	0.65486 0.30483 0.62355 -0.11100
C 	C 	0.70680 0.36093 0.64836 -0.02200
C 	C 	0.71198 0.36678 0.68891 0.05700
H 	H 	0.57417 0.22138 0.69233 0.05400
N 	N 	0.55351 0.20028 0.61607 -0.20400
H 	H 	0.74387 0.39981 0.63609 0.03900
N 	N 	0.76232 0.42201 0.71236 -0.19200
H 	H 	0.51757 0.16343 0.62816 0.08000
H 	H 	0.54807 0.19394 0.58582 0.08100
H 	H 	0.79788 0.45941 0.70042 0.08000
H 	H 	0.76584 0.42904 0.74250 0.08700
H 	H 	0.59001 0.36366 0.77893 0.07900
H 	H 	0.60550 0.35668 0.73089 0.08600
H 	H 	0.77087 0.27815 0.84349 0.06800
H 	H 	0.78042 0.26444 0.79469 0.07600
C 	C 	0.68633 0.33434 0.12607 -0.10600
C 	C 	0.65595 0.27370 0.13664 0.12600
C 	C 	0.65367 0.26867 0.17594 -0.09700
C 	C 	0.67292 0.32096 0.20395 0.00100
C 	C 	0.70057 0.38098 0.19322 0.05700
C 	C 	0.70911 0.38747 0.15470 -0.02500
N 	N 	0.62576 0.21998 0.10921 -0.20300
H 	H 	0.63242 0.22277 0.18428 0.05700
C 	C 	0.66060 0.31146 0.24392 0.00100
N 	N 	0.71818 0.43229 0.21950 -0.19200
H 	H 	0.73279 0.43400 0.14692 0.04400
C 	C 	0.71242 0.33357 0.27401 -0.09800
C 	C 	0.70386 0.33183 0.31284 0.12600
C 	C 	0.64063 0.29979 0.32108 -0.10700
C 	C 	0.58826 0.27456 0.29052 -0.02400
C 	C 	0.59792 0.28224 0.25229 0.05700
H 	H 	0.76037 0.35605 0.26748 0.05700
N 	N 	0.75655 0.36381 0.34192 -0.20300
H 	H 	0.53981 0.24973 0.29657 0.04300
N 	N 	0.54705 0.26229 0.22396 -0.19200
H 	H 	0.80233 0.38313 0.33551 0.08600
H 	H 	0.75355 0.37446 0.37056 0.09700
H 	H 	0.50074 0.23944 0.23031 0.07900
H 	H 	0.55299 0.27070 0.19575 0.08600
H 	H 	0.73965 0.47661 0.21141 0.07900
H 	H 	0.70950 0.42862 0.24783 0.08600
H 	H 	0.61430 0.21979 0.07996 0.09800
H 	H 	0.60819 0.17639 0.11746 0.08600
C 	C 	0.86264 0.81492 0.45894 -0.05000
C 	C 	0.82763 0.78184 0.48745 0.09700
C 	C 	0.80095 0.71723 0.48474 -0.08500
C 	C 	0.81041 0.68585 0.45497 -0.01000
C 	C 	0.84556 0.71897 0.42656 0.07000
C 	C 	0.87071 0.78305 0.42865 -0.05400
N 	N 	0.82051 0.81192 0.51780 -0.19900
H 	H 	0.77367 0.69154 0.50629 0.05200
C 	C 	0.78188 0.61780 0.45330 0.00400
N 	N 	0.85594 0.68986 0.39753 -0.19500
H 	H 	0.89774 0.80859 0.40697 0.04700
C 	C 	0.72157 0.57172 0.42951 -0.10000
C 	C 	0.69404 0.50687 0.42589 0.12400
C 	C 	0.72568 0.48771 0.44851 -0.11600
C 	C 	0.78624 0.53375 0.47212 -0.02100
C 	C 	0.81501 0.59882 0.47458 0.05500
H 	H 	0.69684 0.58650 0.41285 0.05500
N 	N 	0.63845 0.46354 0.39979 -0.20200
H 	H 	0.81073 0.51896 0.48902 0.03400
N 	N 	0.87424 0.64261 0.49727 -0.19200
H 	H 	0.61412 0.47787 0.38438 0.07900
H 	H 	0.62055 0.41597 0.39313 0.06800
H 	H 	0.89810 0.62810 0.51299 0.07900
H 	H 	0.89741 0.69130 0.49936 0.08600
H 	H 	0.88150 0.71461 0.37654 0.08100
H 	H 	0.83952 0.64281 0.39568 0.08700
H 	H 	0.84192 0.86045 0.52170 0.08900
H 	H 	0.79397 0.78683 0.53839 0.08100
C 	C 	0.85372 0.99411 0.44998 -0.05800
C 	C 	0.84304 0.00788 0.41339 0.10500
C 	C 	0.81581 0.04043 0.40989 -0.08800
C 	C 	0.79912 0.05924 0.44221 -0.00700
C 	C 	0.80669 0.04248 0.47831 0.06600
C 	C 	0.83396 0.00999 0.48177 -0.04600
N 	N 	0.85868 0.98998 0.38158 -0.20300
H 	H 	0.80873 0.05221 0.38211 0.05400
C 	C 	0.77623 0.09868 0.43830 0.00400
N 	N 	0.78852 0.05793 0.50975 -0.19400
H 	H 	0.84140 0.99854 0.50961 0.04100
C 	C 	0.70993 0.06862 0.42752 -0.10200
C 	C 	0.68588 0.10434 0.42766 0.12800
C 	C 	0.72900 0.17118 0.43976 -0.12200
C 	C 	0.79565 0.20152 0.44772 -0.02500
C 	C 	0.81983 0.16592 0.44713 0.05400
H 	H 	0.67685 0.01722 0.41955 0.05600
N 	N 	0.62170 0.07440 0.41555 -0.20400
H 	H 	0.82873 0.25288 0.45605 0.03200
N 	N 	0.88467 0.19647 0.45558 -0.19200
H 	H 	0.58985 0.02485 0.40798 0.08100
H 	H 	0.60324 0.10001 0.41201 0.08800
H 	H 	0.91637 0.24606 0.46273 0.07900
H 	H 	0.90436 0.17160 0.45463 0.08700
H 	H 	0.79512 0.04609 0.53639 0.07900
H 	H 	0.76711 0.08110 0.50807 0.08200
H 	H 	0.87633 0.96332 0.38278 0.09000
H 	H 	0.85192 0.00155 0.35488 0.08400
C 	C 	0.06235 0.03065 0.47588 -0.05300
C 	C 	0.10116 0.03776 0.51009 0.09800
C 	C 	0.16786 0.07121 0.51197 -0.08600
C 	C 	0.19662 0.09979 0.48104 -0.00900
C 	C 	0.15823 0.09549 0.44764 0.06900
C 	C 	0.09136 0.06095 0.44548 -0.05400
N 	N 	0.07499 0.01392 0.54146 -0.19800
H 	H 	0.19762 0.07561 0.53776 0.05200
C 	C 	0.26680 0.13310 0.48366 0.00300
N 	N 	0.18509 0.12388 0.41752 -0.19400
H 	H 	0.06156 0.05611 0.41953 0.04500
C 	C 	0.28880 0.09846 0.47045 -0.09800
C 	C 	0.35430 0.12930 0.46901 0.12000
C 	C 	0.39842 0.19608 0.48121 -0.11200
C 	C 	0.37682 0.23031 0.49602 -0.02000
C 	C 	0.31139 0.19943 0.49760 0.05500
H 	H 	0.25458 0.04749 0.46041 0.05400
N 	N 	0.37421 0.09470 0.45537 -0.20400
H 	H 	0.41095 0.28134 0.50587 0.04200
N 	N 	0.29169 0.23373 0.51216 -0.19200
H 	H 	0.34112 0.04549 0.44614 0.07900
H 	H 	0.42252 0.11600 0.45395 0.07500
H 	H 	0.32485 0.28284 0.52180 0.08000
H 	H 	0.24366 0.21209 0.51456 0.08600
H 	H 	0.15626 0.12018 0.39297 0.08000
H 	H 	0.23463 0.15001 0.41814 0.08600
H 	H 	0.02684 0.99415 0.54241 0.08500
H 	H 	0.10360 0.01741 0.56605 0.08100
C 	C 	0.97131 0.89377 0.99305 -0.04300
C 	C 	0.94106 0.85662 0.02134 0.09500
C 	C 	0.90873 0.79071 0.01260 -0.08300
C 	C 	0.90771 0.76173 0.97670 -0.01200
C 	C 	0.93814 0.79890 0.94847 0.07100
C 	C 	0.96944 0.86465 0.95693 -0.05700
N 	N 	0.94390 0.88394 0.05710 -0.19900
H 	H 	0.88523 0.76195 0.03408 0.05100
C 	C 	0.87484 0.69244 0.96921 0.00500
N 	N 	0.93803 0.77196 0.91345 -0.19500
H 	H 	0.99286 0.89337 0.93541 0.04800
C 	C 	0.80999 0.65163 0.95060 -0.10200
C 	C 	0.77550 0.58553 0.94628 0.12900
C 	C 	0.80566 0.56025 0.96284 -0.11400
C 	C 	0.87147 0.60079 0.97940 -0.02400
C 	C 	0.90666 0.66684 0.98251 0.05500
H 	H 	0.78635 0.67141 0.93940 0.05600
N 	N 	0.71421 0.54667 0.92546 -0.20400
H 	H 	0.89492 0.58107 0.99101 0.03300
N 	N 	0.97067 0.70529 0.99838 -0.19200
H 	H 	0.69137 0.56569 0.91469 0.08100
H 	H 	0.68989 0.49764 0.91812 0.09200
H 	H 	0.99340 0.68600 0.00885 0.08000
H 	H 	0.99879 0.75436 0.99973 0.08700
H 	H 	0.96054 0.79985 0.89279 0.08100
H 	H 	0.91606 0.72337 0.90640 0.08700
H 	H 	0.97005 0.93309 0.06528 0.08900
H 	H 	0.92062 0.85589 0.07754 0.08100
C 	C 	0.97204 0.08023 0.01056 -0.04300
C 	C 	0.96872 0.10735 0.04612 0.09600
C 	C 	0.93259 0.13116 0.04566 -0.08400
C 	C 	0.89905 0.12731 0.01052 -0.00900
C 	C 	0.90307 0.10090 0.97494 0.07000
C 	C 	0.93944 0.07742 0.97540 -0.05700
N 	N 	0.99921 0.10987 0.08073 -0.19600
H 	H 	0.92970 0.15180 0.07280 0.05300
C 	C 	0.85944 0.15064 0.01136 0.00300
N 	N 	0.87217 0.09789 0.94034 -0.19400
H 	H 	0.94225 0.05670 0.94825 0.04800
C 	C 	0.88836 0.21461 0.00978 -0.09800
C 	C 	0.85084 0.23654 0.00480 0.11600
C 	C 	0.78315 0.19364 0.00229 -0.11600
C 	C 	0.75477 0.13047 0.00605 -0.02100
C 	C 	0.79232 0.10853 0.01080 0.05600
H 	H 	0.93999 0.24690 0.01090 0.05400
N 	N 	0.87983 0.29821 0.00140 -0.20400
H 	H 	0.70310 0.09802 0.00474 0.04100
N 	N 	0.76365 0.04707 0.01450 -0.19200
H 	H 	0.92982 0.32942 0.00344 0.07700
H 	H 	0.85335 0.31577 0.99638 0.06500
H 	H 	0.71384 0.01599 0.01322 0.08100
H 	H 	0.79045 0.02979 0.01940 0.08700
H 	H 	0.87499 0.07777 0.91429 0.07900
H 	H 	0.84556 0.11582 0.93881 0.08200
H 	H 	0.02514 0.09122 0.08226 0.08400
H 	H 	0.99669 0.13030 0.10678 0.08200
C 	C 	0.50068 0.24117 0.00181 -0.11700
C 	C 	0.44846 0.17971 0.98143 0.12600
C 	C 	0.38536 0.15563 0.98589 -0.10100
C 	C 	0.37357 0.19237 0.00944 0.00500
C 	C 	0.42579 0.25381 0.02978 0.05300
C 	C 	0.48889 0.27746 0.02582 -0.02100
N 	N 	0.45829 0.14424 0.95696 -0.20400
H 	H 	0.34515 0.10853 0.97043 0.05600
C 	C 	0.30624 0.16595 0.01247 -0.01000
N 	N 	0.41569 0.29042 0.05289 -0.19200
H 	H 	0.52908 0.32445 0.04147 0.02600
C 	C 	0.27990 0.13236 0.04233 -0.08500
C 	C 	0.21528 0.10399 0.04501 0.09800
C 	C 	0.17569 0.10685 0.01616 -0.05000
C 	C 	0.20284 0.14316 0.98748 -0.05500
C 	C 	0.26796 0.17301 0.98537 0.06900
H 	H 	0.30991 0.12860 0.06367 0.05200
N 	N 	0.19186 0.07514 0.07563 -0.19900
H 	H 	0.17265 0.14632 0.96587 0.04600
N 	N 	0.29321 0.20793 0.95722 -0.19500
H 	H 	0.22067 0.07112 0.09602 0.08100
H 	H 	0.14601 0.05893 0.08043 0.08700
H 	H 	0.26431 0.21216 0.93707 0.08000
H 	H 	0.34174 0.23186 0.95531 0.08600
H 	H 	0.45464 0.33571 0.06780 0.07800
H 	H 	0.36937 0.27459 0.05626 0.08500
H 	H 	0.50408 0.16190 0.95135 0.08200
H 	H 	0.41945 0.09855 0.94254 0.08000
