data_crystal

_cell_length_a 27.35151
_cell_length_b 27.76975
_cell_length_c 30.76966
_cell_angle_alpha 89.92809
_cell_angle_beta  89.92356
_cell_angle_gamma 90.90401

_symmetry_space_group_name_	'P 1'
_symmetry_space_group_name_H-M	'P 1'

loop_
_symmetry_equiv_pos_as_xyz
  x,y,z

loop_
_atom_site_label
_atom_site_type_symbol
_atom_site_fract_x
_atom_site_fract_y
_atom_site_fract_z
_atom_site_charge
Zn	Zn	0.48853 0.52228 0.00199 1.21800
C 	C 	0.55024 0.60763 0.00925 0.26200
O 	O 	0.51263 0.48016 0.04748 -0.49200
O 	O 	0.52161 0.61908 0.04174 -0.44400
O 	O 	0.56195 0.53173 0.08264 -0.47800
C 	C 	0.41541 0.58015 0.03698 0.32200
O 	O 	0.43983 0.57147 0.00116 -0.45900
O 	O 	0.43280 0.56654 0.07493 -0.50100
C 	C 	0.55529 0.48986 0.06415 0.29600
O 	O 	0.42240 0.46928 0.99102 -0.30700
Zn	Zn	0.50296 0.57061 0.08927 1.17100
O 	O 	0.54667 0.56460 0.99131 -0.40200
C 	C 	0.44967 0.44904 0.96203 0.25700
O 	O 	0.48863 0.47392 0.95197 -0.37200
Zn	Zn	0.40568 0.15509 0.97702 1.22900
C 	C 	0.41935 0.13643 0.06862 0.34900
O 	O 	0.34024 0.13188 0.99542 -0.40800
O 	O 	0.38153 0.16275 0.07850 -0.44300
O 	O 	0.31312 0.20635 0.01421 -0.50300
C 	C 	0.44600 0.24995 0.98934 0.33500
O 	O 	0.43489 0.21739 0.96003 -0.43700
O 	O 	0.43750 0.24026 0.03027 -0.51100
C 	C 	0.30415 0.16121 0.00398 0.29100
O 	O 	0.38351 0.14577 0.90286 -0.30600
Zn	Zn	0.37055 0.22679 0.04670 1.17300
O 	O 	0.44194 0.14280 0.03127 -0.44500
C 	C 	0.41255 0.10923 0.90379 0.30700
O 	O 	0.43313 0.10109 0.94076 -0.37700
C 	C 	0.56223 0.98309 0.71255 0.15700
C 	C 	0.59941 0.96043 0.73598 -0.10600
H 	H 	0.62803 0.94172 0.71879 0.08700
C 	C 	0.59922 0.96161 0.78159 0.08600
C 	C 	0.56213 0.98597 0.80359 -0.07500
C 	C 	0.52546 0.00935 0.78024 0.03500
C 	C 	0.52552 0.00786 0.73473 -0.10900
H 	H 	0.49715 0.02576 0.71656 0.07200
N 	N 	0.56136 0.98052 0.66588 -0.17700
C 	C 	0.53299 0.94588 0.64598 0.20100
C 	C 	0.52849 0.94517 0.60038 -0.07900
C 	C 	0.55516 0.97881 0.57534 0.07100
C 	C 	0.58358 0.01441 0.59627 -0.08700
C 	C 	0.58685 0.01425 0.64197 0.19300
C 	C 	0.49587 0.91305 0.57983 0.01300
C 	C 	0.49069 0.91359 0.53473 -0.05500
C 	C 	0.52143 0.94327 0.50867 0.01700
C 	C 	0.55210 0.97786 0.52933 -0.02000
C 	C 	0.57792 0.01294 0.50450 0.00900
C 	C 	0.60623 0.05098 0.57157 0.01200
C 	C 	0.60173 0.05144 0.52641 -0.05600
C 	C 	0.52036 0.94079 0.46244 0.01700
C 	C 	0.54638 0.97577 0.43763 -0.02100
C 	C 	0.57725 0.01015 0.45832 0.00900
O 	O 	0.61417 0.04692 0.66188 -0.20100
O 	O 	0.50960 0.91329 0.66968 -0.18700
H 	H 	0.62587 0.08026 0.58737 0.04500
H 	H 	0.61446 0.08306 0.50906 0.04700
H 	H 	0.47285 0.88889 0.59885 0.04800
H 	H 	0.46095 0.89291 0.52068 0.04800
C 	C 	0.60860 0.03929 0.43237 -0.05800
C 	C 	0.60391 0.03958 0.38723 0.01200
C 	C 	0.57085 0.00794 0.36661 -0.08900
C 	C 	0.54334 0.97492 0.39163 0.07100
C 	C 	0.49588 0.90276 0.44042 -0.05700
C 	C 	0.49096 0.90368 0.39530 0.01200
C 	C 	0.51408 0.94002 0.37067 -0.08100
C 	C 	0.56666 0.00711 0.32098 0.19200
N 	N 	0.53701 0.97351 0.30108 -0.17800
C 	C 	0.51048 0.94057 0.32499 0.20000
C 	C 	0.53592 0.97106 0.25439 0.15300
C 	C 	0.50702 0.00302 0.23060 -0.10700
C 	C 	0.50848 0.00267 0.18502 0.02900
C 	C 	0.53807 0.96969 0.16333 -0.07100
C 	C 	0.56726 0.93802 0.18699 0.08200
C 	C 	0.56599 0.93857 0.23251 -0.10800
O 	O 	0.59176 0.03843 0.29726 -0.20600
O 	O 	0.48166 0.90912 0.30511 -0.19600
H 	H 	0.48460 0.02884 0.24752 0.07000
H 	H 	0.58919 0.91473 0.25091 0.07900
H 	H 	0.63840 0.05975 0.44660 0.04700
H 	H 	0.62747 0.06329 0.36827 0.04300
H 	H 	0.48298 0.87109 0.45759 0.04800
H 	H 	0.47075 0.87481 0.37944 0.04500
H 	H 	0.53980 0.96992 0.12811 0.06400
H 	H 	0.56211 0.98716 0.83883 0.06700
Zn	Zn	0.73547 0.84182 0.98602 1.22500
C 	C 	0.69739 0.83915 0.07389 0.31200
O 	O 	0.80634 0.85366 0.99260 -0.43700
O 	O 	0.70918 0.79348 0.07601 -0.44900
O 	O 	0.81177 0.82589 0.06202 -0.48400
C 	C 	0.70161 0.74350 0.98580 0.31500
O 	O 	0.68832 0.78853 0.98261 -0.43800
O 	O 	0.74564 0.73377 0.99958 -0.49000
C 	C 	0.82629 0.85574 0.03142 0.28500
O 	O 	0.74247 0.83608 0.90944 -0.31100
Zn	Zn	0.77316 0.76857 0.04888 1.16800
O 	O 	0.71478 0.86682 0.04260 -0.44600
C 	C 	0.72279 0.87836 0.90898 0.26700
O 	O 	0.71327 0.89619 0.94683 -0.37100
Zn	Zn	0.12839 0.66535 0.00365 1.21600
C 	C 	0.11003 0.64832 0.09525 0.31000
O 	O 	0.10719 0.73064 0.98753 -0.42300
O 	O 	0.15115 0.67063 0.10511 -0.44600
O 	O 	0.10613 0.75241 0.05827 -0.48600
C 	C 	0.22923 0.66189 0.02937 0.30600
O 	O 	0.18946 0.63587 0.02233 -0.45500
O 	O 	0.22612 0.70756 0.03963 -0.50700
C 	C 	0.09600 0.76196 0.01764 0.27800
O 	O 	0.15367 0.65221 0.93072 -0.30800
Zn	Zn	0.17162 0.73248 0.07251 1.17200
O 	O 	0.08980 0.65508 0.05708 -0.43800
C 	C 	0.11571 0.62358 0.92911 0.26800
O 	O 	0.08993 0.62080 0.96420 -0.37200
C 	C 	0.97421 0.49243 0.73397 0.16000
C 	C 	0.00869 0.52014 0.75698 -0.11800
H 	H 	0.03622 0.54094 0.73948 0.08200
C 	C 	0.00700 0.52166 0.80244 0.07200
C 	C 	0.97108 0.49500 0.82493 -0.06900
C 	C 	0.93661 0.46710 0.80199 0.04300
C 	C 	0.93832 0.46576 0.75647 -0.09900
H 	H 	0.91166 0.44443 0.73855 0.07500
N 	N 	0.97489 0.49233 0.68731 -0.17700
C 	C 	0.00478 0.46113 0.66578 0.19200
C 	C 	0.00617 0.46078 0.62004 -0.09100
C 	C 	0.97543 0.49151 0.59670 0.07400
C 	C 	0.94649 0.52455 0.61928 -0.08000
C 	C 	0.94635 0.52411 0.66502 0.20200
C 	C 	0.03921 0.43175 0.59755 0.01200
C 	C 	0.04050 0.43206 0.55223 -0.05700
C 	C 	0.00567 0.45822 0.52822 0.00700
C 	C 	0.97469 0.49017 0.55069 -0.01800
C 	C 	0.94460 0.52230 0.52751 0.01700
C 	C 	0.91976 0.55872 0.59601 0.01400
C 	C 	0.92040 0.55889 0.55069 -0.05500
C 	C 	0.00281 0.45498 0.48214 0.00700
C 	C 	0.97254 0.48700 0.45900 -0.01900
C 	C 	0.94137 0.51870 0.48151 0.01700
O 	O 	0.91862 0.55434 0.68656 -0.18700
O 	O 	0.03213 0.43119 0.68801 -0.20200
H 	H 	0.89970 0.58633 0.61294 0.05000
H 	H 	0.90427 0.58897 0.53402 0.05000
H 	H 	0.06532 0.41018 0.61509 0.04400
H 	H 	0.07024 0.41407 0.53625 0.04600
C 	C 	0.90599 0.54427 0.45766 -0.05600
C 	C 	0.90689 0.54439 0.41234 0.01400
C 	C 	0.94038 0.51594 0.38974 -0.08000
C 	C 	0.97184 0.48584 0.41298 0.07400
C 	C 	0.02765 0.41892 0.45877 -0.05800
C 	C 	0.02873 0.41966 0.41345 0.01200
C 	C 	0.00159 0.45360 0.39031 -0.09300
C 	C 	0.94161 0.51563 0.34401 0.20200
N 	N 	0.97264 0.48560 0.32239 -0.17800
C 	C 	0.00211 0.45457 0.34457 0.19100
C 	C 	0.97360 0.48606 0.27573 0.16800
C 	C 	0.94423 0.45344 0.25232 -0.11200
C 	C 	0.94362 0.45516 0.20683 0.09200
C 	C 	0.97321 0.48880 0.18476 -0.08300
C 	C 	0.00224 0.52176 0.20808 0.07900
C 	C 	0.00272 0.52012 0.25359 -0.12600
O 	O 	0.91292 0.54440 0.32185 -0.18300
O 	O 	0.03125 0.42574 0.32295 -0.20800
H 	H 	0.92143 0.42742 0.26951 0.08500
H 	H 	0.02499 0.54564 0.27178 0.07800
H 	H 	0.87617 0.56199 0.47382 0.04900
H 	H 	0.88030 0.56547 0.39489 0.04900
H 	H 	0.04391 0.38879 0.47524 0.04500
H 	H 	0.04934 0.39252 0.39641 0.04100
H 	H 	0.97283 0.49004 0.14953 0.07200
H 	H 	0.96985 0.49611 0.86015 0.06600
Zn	Zn	0.79873 0.33397 0.00326 1.21600
C 	C 	0.80719 0.35942 0.91270 0.35000
O 	O 	0.75005 0.38465 0.99915 -0.44000
O 	O 	0.75987 0.35214 0.90862 -0.44300
O 	O 	0.68938 0.33078 0.98250 -0.49800
C 	C 	0.80429 0.23829 0.97117 0.32400
O 	O 	0.79848 0.26411 0.00635 -0.49400
O 	O 	0.78038 0.24946 0.93579 -0.46900
C 	C 	0.70341 0.37339 0.99684 0.34500
O 	O 	0.78995 0.33436 0.07999 -0.32300
Zn	Zn	0.72612 0.29430 0.93906 1.17500
O 	O 	0.83049 0.34220 0.94644 -0.43000
C 	C 	0.83326 0.35415 0.07956 0.27100
O 	O 	0.85221 0.36156 0.04162 -0.38800
Zn	Zn	0.02168 0.04755 0.00023 1.21100
C 	C 	0.07457 0.95994 0.99303 0.32700
O 	O 	0.97962 0.02910 0.04927 -0.48100
O 	O 	0.10533 0.98347 0.01817 -0.46400
O 	O 	0.02315 0.96932 0.07953 -0.49900
C 	C 	0.11265 0.08954 0.02544 0.29700
O 	O 	0.08697 0.07490 0.99184 -0.41900
O 	O 	0.09875 0.07707 0.06478 -0.50500
C 	C 	0.98139 0.98556 0.06539 0.32900
O 	O 	0.99689 0.12707 0.00871 -0.34300
Zn	Zn	0.08192 0.01007 0.07707 1.16600
O 	O 	0.03540 0.98188 0.97861 -0.42200
C 	C 	0.96827 0.11944 0.97584 0.30100
O 	O 	0.97153 0.07697 0.95848 -0.37600
C 	C 	0.90452 0.17460 0.92963 0.00600
H 	H 	0.92103 0.17264 0.89671 0.04900
C 	C 	0.89815 0.22119 0.95666 -0.02500
H 	H 	0.90893 0.25814 0.94620 0.06400
C 	C 	0.85158 0.15835 0.94183 -0.01900
H 	H 	0.82388 0.14343 0.91898 0.04400
C 	C 	0.84608 0.20450 0.96893 -0.04100
C 	C 	0.92355 0.14908 0.97048 -0.07700
C 	C 	0.87145 0.13231 0.98271 0.01900
H 	H 	0.86082 0.09542 0.99346 0.03700
C 	C 	0.86530 0.17884 0.00962 -0.07100
H 	H 	0.84904 0.18071 0.04265 0.05100
C 	C 	0.91763 0.19537 0.99739 0.04800
H 	H 	0.94487 0.21091 0.02037 0.02200
C 	C 	0.89904 0.43899 0.82578 0.04600
C 	C 	0.86371 0.46264 0.85060 -0.07800
C 	C 	0.83153 0.43616 0.87703 0.04900
C 	C 	0.83454 0.38585 0.87902 -0.13700
C 	C 	0.86820 0.36187 0.85232 0.16600
C 	C 	0.90037 0.38853 0.82588 -0.11000
H 	H 	0.80552 0.45487 0.89724 0.03100
H 	H 	0.92711 0.37009 0.80622 0.08400
H 	H 	0.86206 0.50160 0.85027 0.06400
Br	Br	0.87057 0.29281 0.85144 -0.25100
C 	C 	0.85702 0.37210 0.11909 -0.04500
C 	C 	0.90500 0.35856 0.12846 -0.01100
C 	C 	0.93198 0.38331 0.16004 -0.02300
C 	C 	0.91149 0.42231 0.18203 -0.04300
C 	C 	0.86213 0.43380 0.17481 0.10700
C 	C 	0.83496 0.40830 0.14363 -0.04700
H 	H 	0.96973 0.37389 0.16573 0.04200
H 	H 	0.79767 0.41852 0.13676 0.06700
H 	H 	0.92209 0.33021 0.10996 0.04100
Br	Br	0.83235 0.48626 0.20500 -0.22500
C 	C 	0.04530 0.84250 0.02477 -0.02300
H 	H 	0.01586 0.82779 0.04605 0.03000
C 	C 	0.03828 0.86764 0.98016 0.00700
H 	H 	0.00301 0.87458 0.96374 0.03800
C 	C 	0.08310 0.88153 0.03790 -0.02000
H 	H 	0.08494 0.89935 0.07013 0.00300
C 	C 	0.07628 0.90627 0.99350 -0.06900
C 	C 	0.08691 0.81291 0.00538 -0.08700
C 	C 	0.12468 0.85176 0.01843 -0.03200
H 	H 	0.16035 0.84509 0.03438 -0.00600
C 	C 	0.11791 0.87662 0.97399 0.00500
H 	H 	0.14782 0.89104 0.95304 0.03900
C 	C 	0.08015 0.83696 0.96073 0.00100
H 	H 	0.07901 0.81793 0.92903 0.04400
C 	C 	0.09752 0.60343 0.88819 -0.04100
C 	C 	0.11113 0.55697 0.87587 -0.01100
C 	C 	0.08344 0.53143 0.84521 -0.02500
C 	C 	0.04194 0.55220 0.82668 -0.03800
C 	C 	0.03087 0.60042 0.83614 0.09600
C 	C 	0.05880 0.62587 0.86678 -0.04200
H 	H 	0.09267 0.49458 0.83760 0.04400
H 	H 	0.04860 0.66207 0.87581 0.06700
H 	H 	0.14127 0.53953 0.89201 0.04200
Br	Br	0.97604 0.63104 0.80951 -0.21200
C 	C 	0.08380 0.62003 0.12846 -0.06800
C 	C 	0.10785 0.58377 0.15138 -0.00600
C 	C 	0.08149 0.55314 0.17922 -0.03300
C 	C 	0.03097 0.55885 0.18465 -0.03900
C 	C 	0.00742 0.59727 0.16383 0.08900
C 	C 	0.03380 0.62737 0.13551 -0.03800
H 	H 	0.09999 0.52396 0.19544 0.03900
H 	H 	0.01534 0.65618 0.11871 0.06100
H 	H 	0.14658 0.57817 0.14641 0.03600
Br	Br	0.93933 0.60912 0.17376 -0.22300
C 	C 	0.87114 0.94234 0.02246 -0.00400
H 	H 	0.84434 0.95966 0.00059 0.03300
C 	C 	0.92551 0.93347 0.01152 -0.03600
H 	H 	0.94372 0.94403 0.98063 0.06300
C 	C 	0.88599 0.96050 0.06825 -0.01100
H 	H 	0.87200 0.99329 0.08437 0.03700
C 	C 	0.93986 0.95116 0.05724 -0.07400
C 	C 	0.86696 0.89077 0.04045 -0.06900
C 	C 	0.88118 0.90848 0.08619 -0.01100
H 	H 	0.86253 0.89796 0.11691 0.03900
C 	C 	0.93557 0.89958 0.07525 -0.00900
H 	H 	0.96233 0.88221 0.09711 0.03700
C 	C 	0.92072 0.88149 0.02945 -0.00600
H 	H 	0.93398 0.84847 0.01329 0.02700
C 	C 	0.69943 0.89745 0.86966 -0.03400
C 	C 	0.70287 0.94681 0.86036 -0.01700
C 	C 	0.67281 0.96702 0.82873 -0.00600
C 	C 	0.63832 0.93824 0.80663 -0.04600
C 	C 	0.63695 0.88810 0.81398 0.11000
C 	C 	0.66786 0.86788 0.84513 -0.04900
H 	H 	0.67449 0.00552 0.82301 0.03300
H 	H 	0.66528 0.82962 0.85196 0.07500
H 	H 	0.72751 0.96985 0.87881 0.05000
Br	Br	0.59085 0.84721 0.78407 -0.22600
C 	C 	0.66710 0.86033 0.10808 -0.06500
C 	C 	0.68137 0.90423 0.12701 -0.00300
C 	C 	0.64970 0.92804 0.15499 -0.02900
C 	C 	0.60325 0.90844 0.16405 -0.04000
C 	C 	0.58978 0.86311 0.14693 0.10200
C 	C 	0.62189 0.83910 0.11914 -0.04100
H 	H 	0.66049 0.96269 0.16834 0.04400
H 	H 	0.61091 0.80492 0.10493 0.06000
H 	H 	0.71657 0.92049 0.11917 0.04100
Br	Br	0.52732 0.83421 0.16016 -0.25100
C 	C 	0.23054 0.09984 0.98232 0.01600
H 	H 	0.24938 0.07893 0.95672 0.04400
C 	C 	0.18372 0.12977 0.97586 0.03000
H 	H 	0.16310 0.13331 0.94499 0.03800
C 	C 	0.20920 0.07889 0.02514 -0.02000
H 	H 	0.20953 0.04039 0.03488 0.02500
C 	C 	0.16311 0.10910 0.01863 -0.09500
C 	C 	0.25332 0.14174 0.00830 -0.07100
C 	C 	0.23264 0.12105 0.05100 -0.01500
H 	H 	0.25324 0.11759 0.08189 0.04100
C 	C 	0.18594 0.15097 0.04455 0.00200
H 	H 	0.16717 0.17190 0.07018 0.02500
C 	C 	0.20721 0.17194 0.00176 -0.06000
H 	H 	0.20680 0.21045 0.99202 0.06300
C 	C 	0.48800 0.03667 0.80367 0.04600
C 	C 	0.45216 0.01215 0.82806 -0.08900
C 	C 	0.42362 0.03714 0.85793 0.04600
C 	C 	0.43083 0.08683 0.86386 -0.11900
C 	C 	0.46393 0.11214 0.83665 0.15900
C 	C 	0.49224 0.08694 0.80658 -0.11000
H 	H 	0.39797 0.01741 0.87838 0.03100
H 	H 	0.51935 0.10611 0.78720 0.08000
H 	H 	0.44816 0.97338 0.82550 0.07300
Br	Br	0.47393 0.18044 0.84254 -0.24200
C 	C 	0.48277 0.03962 0.15993 0.04900
C 	C 	0.50747 0.08226 0.14808 -0.08600
C 	C 	0.48621 0.11419 0.11881 0.04800
C 	C 	0.43990 0.10395 0.10131 -0.14500
C 	C 	0.41431 0.06183 0.11420 0.16700
C 	C 	0.43589 0.02984 0.14347 -0.12800
H 	H 	0.50601 0.14662 0.10927 0.02300
H 	H 	0.41683 0.99677 0.15238 0.09100
H 	H 	0.54377 0.08996 0.16059 0.05500
Br	Br	0.35115 0.04614 0.09043 -0.27400
C 	C 	0.44279 0.32534 0.93143 0.01400
H 	H 	0.43618 0.30587 0.90045 0.04600
C 	C 	0.48691 0.35989 0.94095 -0.03500
H 	H 	0.51646 0.36969 0.91765 0.04600
C 	C 	0.40769 0.36187 0.95274 -0.04700
H 	H 	0.37209 0.37324 0.93915 0.04700
C 	C 	0.45155 0.39540 0.96233 -0.01400
C 	C 	0.45012 0.30155 0.97615 -0.11700
C 	C 	0.41506 0.33746 0.99725 0.05600
H 	H 	0.38540 0.32827 0.02068 -0.05000
C 	C 	0.45899 0.37103 0.00682 -0.09100
H 	H 	0.46559 0.38976 0.03818 0.05100
C 	C 	0.49407 0.33496 0.98568 0.03800
H 	H 	0.52951 0.32339 0.99942 0.02700
C 	C 	0.31757 0.57312 0.04379 0.01500
H 	H 	0.31465 0.53459 0.05328 0.02600
C 	C 	0.29459 0.59586 0.00270 -0.06600
H 	H 	0.27182 0.57646 0.97831 0.07000
C 	C 	0.30016 0.61619 0.07145 -0.02600
H 	H 	0.28189 0.61346 0.10363 0.03100
C 	C 	0.27792 0.63859 0.03042 -0.05400
C 	C 	0.36555 0.60081 0.03429 -0.10700
C 	C 	0.34877 0.64352 0.06194 0.00500
H 	H 	0.37147 0.66301 0.08633 0.02100
C 	C 	0.32598 0.66617 0.02089 -0.04600
H 	H 	0.32914 0.70468 0.01138 0.04100
C 	C 	0.34329 0.62320 0.99321 0.06000
H 	H 	0.36145 0.62603 0.96099 0.03700
C 	C 	0.59533 0.40593 0.04735 -0.04900
H 	H 	0.56465 0.38313 0.05977 0.03800
C 	C 	0.64877 0.40419 0.06364 0.01200
H 	H 	0.66267 0.37947 0.08901 0.03000
C 	C 	0.61344 0.40767 0.99981 0.06500
H 	H 	0.59812 0.38610 0.97254 0.01900
C 	C 	0.66645 0.40620 0.01617 -0.12900
C 	C 	0.59790 0.46131 0.04903 -0.05400
C 	C 	0.61577 0.46323 0.00158 -0.07900
H 	H 	0.60215 0.48754 0.97580 0.06700
C 	C 	0.66930 0.46156 0.01779 0.02300
H 	H 	0.70002 0.48426 0.00531 0.02700
C 	C 	0.65088 0.46007 0.06559 -0.02400
H 	H 	0.66597 0.48188 0.09279 0.04200
C 	C 	0.58532 0.69578 0.99998 0.03100
H 	H 	0.55033 0.71449 0.00575 0.02200
C 	C 	0.61739 0.70120 0.95878 -0.01500
H 	H 	0.60947 0.72483 0.93060 0.05100
C 	C 	0.63115 0.69996 0.02895 -0.04600
H 	H 	0.63435 0.72248 0.05864 0.03900
C 	C 	0.66291 0.70512 0.98794 -0.05600
C 	C 	0.59179 0.64085 0.99825 -0.03200
C 	C 	0.63741 0.64485 0.02724 -0.04700
H 	H 	0.64539 0.62132 0.05548 0.03300
C 	C 	0.66968 0.65023 0.98606 0.00900
H 	H 	0.70483 0.63179 0.98035 0.03900
C 	C 	0.62335 0.64566 0.95703 -0.01800
H 	H 	0.61974 0.62290 0.92754 0.04700
