data_crystal

_cell_length_a 30.73584
_cell_length_b 31.10827
_cell_length_c 26.55099
_cell_angle_alpha 95.46103
_cell_angle_beta  95.45547
_cell_angle_gamma 125.54476

_symmetry_space_group_name_	'P 1'
_symmetry_space_group_name_H-M	'P 1'

loop_
_symmetry_equiv_pos_as_xyz
  x,y,z

loop_
_atom_site_label
_atom_site_type_symbol
_atom_site_fract_x
_atom_site_fract_y
_atom_site_fract_z
_atom_site_charge
C 	C 	0.97903 0.03280 0.99616 0.03900
C 	C 	0.05586 0.03241 0.98217 0.03400
C 	C 	0.03297 0.06012 0.98851 -0.08100
H 	H 	0.05693 0.10271 0.98733 0.05100
C 	C 	0.94321 0.00106 0.43415 0.03000
C 	C 	0.02656 0.00790 0.44008 0.02600
C 	C 	0.99921 0.03122 0.43376 -0.07100
H 	H 	0.02148 0.07279 0.42892 0.04800
Cu	Cu	0.65236 0.26162 0.00407 0.92800
Cu	Cu	0.70466 0.26564 0.90089 0.87200
O 	O 	0.57150 0.22613 0.99635 -0.36300
O 	O 	0.65070 0.26760 0.93046 -0.64000
O 	O 	0.68884 0.22570 0.00741 -0.37600
O 	O 	0.75220 0.28205 0.96254 -0.44000
C 	C 	0.54930 0.24669 0.97395 0.28300
O 	O 	0.58040 0.29689 0.96770 -0.39200
O 	O 	0.66489 0.27028 0.07764 -0.36100
C 	C 	0.73632 0.24724 0.99355 0.29600
O 	O 	0.67413 0.26763 0.83600 -0.41900
H 	H 	0.61410 0.24467 0.90837 0.17200
Cu	Cu	0.72727 0.29109 0.53746 0.87200
Cu	Cu	0.64166 0.30414 0.50170 0.89700
O 	O 	0.64227 0.29579 0.42947 -0.63900
O 	O 	0.76496 0.30434 0.42992 -0.37300
O 	O 	0.71013 0.24274 0.47678 -0.44100
O 	O 	0.56327 0.26372 0.49168 -0.38000
C 	C 	0.53355 0.26926 0.45737 0.28900
O 	O 	0.55629 0.30908 0.43132 -0.39100
C 	C 	0.74423 0.25795 0.44467 0.28900
H 	H 	0.61849 0.25803 0.41089 0.16500
C 	C 	0.62908 0.27409 0.73502 -0.06100
C 	C 	0.62926 0.27528 0.68245 0.16500
H 	H 	0.59551 0.23909 0.74705 0.05600
O 	O 	0.58730 0.23182 0.64684 -0.29200
H 	H 	0.56028 0.23929 0.63961 0.15200
H 	H 	0.76330 0.31538 0.16514 0.15300
C 	C 	0.76355 0.22568 0.42984 -0.09800
C 	C 	0.72915 0.16965 0.42649 0.01700
C 	C 	0.74971 0.13985 0.42070 -0.07400
C 	C 	0.80471 0.16573 0.41807 0.04100
C 	C 	0.83849 0.22120 0.41862 -0.07300
C 	C 	0.81798 0.25111 0.42434 0.01700
C 	C 	0.82736 0.13616 0.41913 -0.02800
C 	C 	0.84580 0.11095 0.42003 -0.01500
C 	C 	0.86781 0.08085 0.42236 0.01900
C 	C 	0.88995 0.07403 0.38126 -0.04600
C 	C 	0.91341 0.04679 0.38455 -0.03400
C 	C 	0.91495 0.02631 0.42907 -0.00400
C 	C 	0.89190 0.03240 0.46980 -0.03400
C 	C 	0.86839 0.05956 0.46642 -0.04600
H 	H 	0.68685 0.14938 0.42973 0.02800
H 	H 	0.72322 0.09688 0.41975 0.04800
H 	H 	0.88099 0.24143 0.41620 0.04800
H 	H 	0.84494 0.29426 0.42662 0.03100
H 	H 	0.88948 0.09023 0.34701 0.04200
H 	H 	0.93088 0.04210 0.35281 0.03800
H 	H 	0.85124 0.06460 0.49830 0.04000
C 	C 	0.08551 0.03977 0.44038 -0.00400
C 	C 	0.12233 0.08385 0.48018 -0.03400
C 	C 	0.17836 0.11232 0.48196 -0.04600
C 	C 	0.19787 0.09691 0.44397 0.01900
C 	C 	0.16117 0.05334 0.40385 -0.04600
C 	C 	0.10515 0.02484 0.40203 -0.03400
C 	C 	0.25554 0.12548 0.44636 -0.01400
C 	C 	0.30378 0.14926 0.44815 -0.02700
C 	C 	0.36136 0.17774 0.45003 0.04100
C 	C 	0.38367 0.19619 0.40640 -0.07100
C 	C 	0.43979 0.22533 0.40858 0.01600
C 	C 	0.47409 0.23632 0.45454 -0.08800
C 	C 	0.45146 0.21700 0.49802 0.01800
C 	C 	0.39528 0.18786 0.49571 -0.07100
H 	H 	0.10754 0.09555 0.51005 0.03700
H 	H 	0.20653 0.14606 0.51302 0.04100
H 	H 	0.17601 0.04135 0.37426 0.04100
H 	H 	0.35760 0.18824 0.37087 0.04800
H 	H 	0.45660 0.23941 0.37460 0.02900
H 	H 	0.47738 0.22532 0.53380 0.03700
H 	H 	0.37824 0.17359 0.52957 0.04900
C 	C 	0.76826 0.22700 0.00686 -0.10100
C 	C 	0.74218 0.17441 0.01644 0.01700
C 	C 	0.77094 0.15253 0.02139 -0.07400
C 	C 	0.82591 0.18305 0.01704 0.04100
C 	C 	0.85277 0.23643 0.01035 -0.07400
C 	C 	0.82416 0.25842 0.00541 0.01400
C 	C 	0.85348 0.15831 0.01504 -0.02800
C 	C 	0.87687 0.13790 0.01333 -0.01500
C 	C 	0.90455 0.11336 0.00994 0.01700
C 	C 	0.92360 0.11015 0.96486 -0.04500
C 	C 	0.94845 0.08434 0.96056 -0.02900
C 	C 	0.95447 0.06162 0.00140 -0.01100
C 	C 	0.93597 0.06545 0.04679 -0.03100
C 	C 	0.91103 0.09122 0.05100 -0.04700
H 	H 	0.69922 0.14978 0.01808 0.03200
H 	H 	0.75003 0.11134 0.02701 0.04800
H 	H 	0.89546 0.26044 0.00752 0.04700
H 	H 	0.84511 0.29942 0.99919 0.03200
H 	H 	0.91869 0.12718 0.93297 0.04100
H 	H 	0.96245 0.08145 0.92533 0.03600
H 	H 	0.89643 0.09361 0.08598 0.04200
C 	C 	0.11255 0.06104 0.97434 -0.00400
C 	C 	0.12388 0.04618 0.92859 -0.03300
C 	C 	0.17775 0.06974 0.92313 -0.04700
C 	C 	0.22057 0.10831 0.96330 0.02300
C 	C 	0.20940 0.12445 0.00834 -0.04900
C 	C 	0.15555 0.10090 0.01387 -0.03500
C 	C 	0.27570 0.12896 0.95965 -0.01500
C 	C 	0.32210 0.14668 0.95726 -0.02500
C 	C 	0.37776 0.16772 0.95588 0.04000
C 	C 	0.40120 0.14666 0.98173 -0.06900
C 	C 	0.45674 0.17074 0.98544 0.01800
C 	C 	0.48944 0.21642 0.96346 -0.09100
C 	C 	0.46513 0.23568 0.93523 0.01400
C 	C 	0.40953 0.21152 0.93169 -0.07100
H 	H 	0.09095 0.01571 0.89772 0.03700
H 	H 	0.18612 0.05725 0.88812 0.04200
H 	H 	0.24235 0.15440 0.03949 0.04200
H 	H 	0.14721 0.11265 0.04931 0.03700
H 	H 	0.37671 0.11247 0.00014 0.04600
H 	H 	0.47459 0.15493 0.00683 0.03500
H 	H 	0.48945 0.27007 0.91704 0.03200
H 	H 	0.39149 0.22763 0.91113 0.04800
H 	H 	0.94068 0.04826 0.07862 0.03700
C 	C 	0.65681 0.29977 0.10880 0.30900
C 	C 	0.67785 0.31021 0.82591 0.30700
C 	C 	0.68086 0.31554 0.61233 0.30700
C 	C 	0.66236 0.29825 0.16403 -0.10500
O 	O 	0.63980 0.30008 0.57540 -0.38300
C 	C 	0.67321 0.31674 0.77191 -0.11000
C 	C 	0.67435 0.31909 0.66645 -0.11000
H 	H 	0.56442 0.22372 0.26639 0.13900
H 	H 	0.89304 0.01692 0.50438 0.03700
C 	C 	0.67422 0.31019 0.27172 -0.10400
C 	C 	0.61643 0.27591 0.18731 -0.05700
C 	C 	0.62212 0.28138 0.24089 0.16500
H 	H 	0.57638 0.25546 0.16390 0.06300
O 	O 	0.57695 0.26062 0.26321 -0.30000
O 	O 	0.63137 0.31936 0.09081 -0.38600
O 	O 	0.72510 0.32194 0.60180 -0.41900
C 	C 	0.71398 0.32316 0.19450 0.16600
O 	O 	0.71699 0.32469 0.35874 -0.36200
C 	C 	0.68141 0.32566 0.32767 0.30300
C 	C 	0.71982 0.32934 0.24827 -0.05700
O 	O 	0.75915 0.34460 0.17211 -0.29500
H 	H 	0.76004 0.35105 0.27171 0.06800
C 	C 	0.94813 0.97769 0.99769 -0.07600
C 	C 	0.97103 0.94996 0.99157 0.03500
C 	C 	0.02486 0.97738 0.98382 -0.08000
H 	H 	0.90636 0.95644 0.00335 0.04900
H 	H 	0.04258 0.95594 0.97905 0.05200
C 	C 	0.91458 0.94735 0.44083 -0.07500
C 	C 	0.94197 0.92404 0.44740 0.03000
C 	C 	0.99788 0.95435 0.44685 -0.07000
H 	H 	0.87133 0.92395 0.44120 0.05000
H 	H 	0.01905 0.93634 0.45186 0.04800
Cu	Cu	0.68604 0.34635 0.93629 0.89800
Cu	Cu	0.64463 0.35715 0.03091 0.89400
O 	O 	0.69325 0.34471 0.00833 -0.64200
O 	O 	0.72414 0.42340 0.94732 -0.38100
C 	C 	0.71561 0.45102 0.98059 0.29200
O 	O 	0.67546 0.42679 0.00671 -0.39500
O 	O 	0.69191 0.34991 0.86312 -0.38300
H 	H 	0.73107 0.36913 0.02785 0.16900
Cu	Cu	0.72673 0.33870 0.43247 0.92700
Cu	Cu	0.62598 0.34082 0.40536 0.89700
O 	O 	0.75980 0.41800 0.43818 -0.36300
O 	O 	0.72181 0.34182 0.50642 -0.64000
O 	O 	0.66203 0.35163 0.34434 -0.37400
C 	C 	0.73735 0.43875 0.45942 0.28300
O 	O 	0.68707 0.40675 0.46677 -0.39200
H 	H 	0.74418 0.37841 0.52763 0.17300
C 	C 	0.71669 0.36335 0.70337 -0.06100
C 	C 	0.71608 0.36255 0.75595 0.16600
H 	H 	0.75111 0.39759 0.69133 0.05700
O 	O 	0.75938 0.40480 0.79154 -0.29200
H 	H 	0.74999 0.43001 0.79923 0.15200
C 	C 	0.76559 0.49762 0.46812 -0.09000
C 	C 	0.81263 0.53097 0.44753 0.01600
C 	C 	0.83479 0.58524 0.44944 -0.07100
C 	C 	0.81037 0.60670 0.47207 0.04100
C 	C 	0.76515 0.57434 0.49486 -0.07100
C 	C 	0.74295 0.52010 0.49315 0.01300
C 	C 	0.82994 0.66109 0.46954 -0.02600
C 	C 	0.84630 0.70663 0.46744 -0.01500
C 	C 	0.86604 0.76096 0.46433 0.01900
C 	C 	0.85112 0.77234 0.41875 -0.04600
C 	C 	0.87413 0.82561 0.41397 -0.03300
C 	C 	0.91224 0.86780 0.45478 -0.00500
C 	C 	0.92557 0.85616 0.50109 -0.03300
C 	C 	0.90255 0.80289 0.50580 -0.04600
H 	H 	0.83112 0.51461 0.42873 0.03800
H 	H 	0.87019 0.61024 0.43226 0.04900
H 	H 	0.74647 0.59088 0.51299 0.04800
H 	H 	0.70746 0.49536 0.51026 0.03200
H 	H 	0.82268 0.74008 0.38662 0.04200
H 	H 	0.86359 0.83419 0.37809 0.03800
H 	H 	0.95474 0.88845 0.53290 0.03800
H 	H 	0.91400 0.79436 0.54127 0.04200
H 	H 	0.07703 0.99097 0.37108 0.03700
C 	C 	0.93847 0.89200 0.99265 -0.00400
C 	C 	0.89331 0.85505 0.95354 -0.03300
C 	C 	0.86451 0.79986 0.95279 -0.04700
C 	C 	0.88067 0.78132 0.99113 0.02200
C 	C 	0.92515 0.81816 0.03071 -0.04900
C 	C 	0.95398 0.87335 0.03150 -0.03500
C 	C 	0.85245 0.72451 0.98921 -0.01400
C 	C 	0.82900 0.67698 0.98783 -0.02600
C 	C 	0.80117 0.62026 0.98621 0.04400
C 	C 	0.78185 0.59800 0.02958 -0.07400
C 	C 	0.75435 0.54282 0.02790 0.01500
C 	C 	0.74592 0.50946 0.98272 -0.08700
C 	C 	0.76577 0.53205 0.93942 0.01800
C 	C 	0.79326 0.58725 0.94122 -0.07200
H 	H 	0.88112 0.86908 0.92333 0.03800
H 	H 	0.83006 0.77156 0.92214 0.04200
H 	H 	0.93772 0.80407 0.06057 0.04200
H 	H 	0.98866 0.90158 0.06196 0.03800
H 	H 	0.78806 0.62339 0.06456 0.04800
H 	H 	0.73977 0.52607 0.06173 0.02800
H 	H 	0.75928 0.50682 0.90418 0.03700
H 	H 	0.80817 0.60426 0.90756 0.04900
