data_crystal

_cell_length_a 17.37845
_cell_length_b 17.42457
_cell_length_c 45.86867
_cell_angle_alpha 90.73787
_cell_angle_beta  90.85731
_cell_angle_gamma 114.03566

_symmetry_space_group_name_	'P 1'
_symmetry_space_group_name_H-M	'P 1'

loop_
_symmetry_equiv_pos_as_xyz
  x,y,z

loop_
_atom_site_label
_atom_site_type_symbol
_atom_site_fract_x
_atom_site_fract_y
_atom_site_fract_z
_atom_site_charge
Ni	Ni	0.25567 0.70860 0.00394 1.09900
H 	H 	0.97505 0.59362 0.00631 0.07400
O 	O 	0.54984 0.90139 0.01447 -0.41400
O 	O 	0.38088 0.76274 0.01526 -0.69800
H 	H 	0.05357 0.40582 0.01578 0.04100
C 	C 	0.57563 0.83979 0.01621 0.28800
O 	O 	0.22330 0.75086 0.04170 -0.37800
O 	O 	0.31360 0.88668 0.03357 -0.41700
Ni	Ni	0.42834 0.88381 0.02253 1.06500
H 	H 	0.39141 0.73624 0.03291 0.14900
C 	C 	0.20768 0.53151 0.02041 0.31000
O 	O 	0.25575 0.60972 0.02702 -0.41000
C 	C 	0.07954 0.41345 0.03780 -0.01300
C 	C 	0.16111 0.47455 0.04386 -0.11100
H 	H 	0.57307 0.66401 0.02824 0.06600
H 	H 	0.92919 0.29259 0.02909 0.06700
H 	H 	0.72007 0.95713 0.03976 0.03600
H 	H 	0.47498 0.66747 0.03917 0.03700
H 	H 	0.18410 0.93692 0.04726 0.03800
C 	C 	0.62119 0.83257 0.04259 -0.12400
O 	O 	0.55367 0.78079 0.99576 -0.38000
C 	C 	0.25912 0.83009 0.05029 0.28400
C 	C 	0.03126 0.36214 0.05999 0.02100
H 	H 	0.32750 0.53438 0.06197 0.07000
C 	C 	0.53819 0.67458 0.04686 -0.19400
H 	H 	0.52969 0.62460 0.06288 0.05700
C 	C 	0.18199 0.91195 0.06891 -0.01000
H 	H 	0.09960 0.00743 0.06098 0.04900
H 	H 	0.89658 0.30633 0.06503 0.06200
C 	C 	0.94526 0.29446 0.05270 -0.16900
H 	H 	0.94329 0.23197 0.05845 0.06100
C 	C 	0.68846 0.90421 0.05374 -0.01400
C 	C 	0.58662 0.76086 0.06021 0.08000
H 	H 	0.10929 0.23780 0.07880 0.06400
C 	C 	0.19504 0.48401 0.07267 0.10100
C 	C 	0.22189 0.85801 0.07453 -0.11300
O 	O 	0.12951 0.64575 0.99328 -0.38300
C 	C 	0.06417 0.37405 0.08887 0.01100
C 	C 	0.28636 0.53989 0.07944 -0.19900
H 	H 	0.29447 0.60623 0.08185 0.07100
C 	C 	0.13732 0.93184 0.09080 0.01400
C 	C 	0.09489 0.99015 0.08432 -0.14900
H 	H 	0.02698 0.95964 0.08951 0.05800
C 	C 	0.71228 0.90896 0.08325 0.01500
H 	H 	0.83421 0.01099 0.07630 0.05000
H 	H 	0.12530 0.04875 0.09763 0.05000
C 	C 	0.05201 0.25052 0.11905 0.04800
C 	C 	0.12316 0.24268 0.10263 -0.18300
H 	H 	0.18284 0.29825 0.10746 0.06200
C 	C 	0.02203 0.31193 0.11162 -0.02200
C 	C 	0.14385 0.43792 0.09517 -0.09800
H 	H 	0.16864 0.44718 0.11739 0.04800
H 	H 	0.13269 0.18588 0.10899 0.05700
H 	H 	0.30813 0.52179 0.10010 0.05900
C 	C 	0.13375 0.89814 0.11885 0.01500
C 	C 	0.21943 0.82532 0.10271 0.09400
C 	C 	0.26249 0.76761 0.10933 -0.19900
H 	H 	0.22479 0.70422 0.09973 0.07600
H 	H 	0.32676 0.79256 0.10022 0.05000
H 	H 	0.92936 0.36176 0.12033 0.04200
C 	C 	0.66105 0.84621 0.10219 0.00800
C 	C 	0.60222 0.77005 0.09042 -0.09900
C 	C 	0.79132 0.98062 0.09441 -0.15100
H 	H 	0.56796 0.71871 0.10469 0.04500
H 	H 	0.53827 0.90790 0.11423 0.04800
H 	H 	0.62576 0.00931 0.11118 0.04600
H 	H 	0.82612 0.95695 0.10981 0.06100
H 	H 	0.77542 0.02886 0.10565 0.05200
H 	H 	0.94902 0.80864 0.10887 0.06600
C 	C 	0.95341 0.31560 0.12642 -0.06700
C 	C 	0.01638 0.19719 0.14228 -0.08100
H 	H 	0.03983 0.15054 0.14798 0.04600
C 	C 	0.17459 0.84512 0.12460 -0.09800
C 	C 	0.09325 0.92381 0.14289 -0.02600
H 	H 	0.26925 0.76135 0.13320 0.06100
C 	C 	0.00655 0.87996 0.14798 0.05000
H 	H 	0.98778 0.75416 0.13465 0.06600
C 	C 	0.91429 0.25843 0.14857 0.04100
H 	H 	0.79428 0.26700 0.14396 0.05600
C 	C 	0.66234 0.86385 0.13381 -0.01400
C 	C 	0.58742 0.96083 0.12664 -0.16600
H 	H 	0.55473 0.98867 0.14125 0.05300
C 	C 	0.95588 0.79759 0.13236 -0.18300
H 	H 	0.89188 0.76613 0.14147 0.05900
H 	H 	0.17195 0.81978 0.14621 0.04900
C 	C 	0.13996 0.99786 0.15863 -0.04600
H 	H 	0.20733 0.02941 0.15548 0.03100
H 	H 	0.20913 0.15408 0.17834 0.05400
C 	C 	0.95046 0.20323 0.15809 -0.00600
H 	H 	0.88148 0.02860 0.15562 0.03600
C 	C 	0.83405 0.25655 0.16131 -0.17900
C 	C 	0.69770 0.82519 0.15322 -0.07200
C 	C 	0.64328 0.93060 0.14415 0.03900
H 	H 	0.70421 0.76817 0.14666 0.04100
C 	C 	0.96619 0.91566 0.16657 -0.07800
C 	C 	0.09973 0.03527 0.17653 0.02200
H 	H 	0.79558 0.19522 0.17114 0.06100
H 	H 	0.89881 0.88459 0.16903 0.04700
C 	C 	0.01135 0.99389 0.18049 0.00700
C 	C 	0.15195 0.11869 0.19104 -0.17400
H 	H 	0.11663 0.15861 0.19232 0.06000
H 	H 	0.07578 0.36513 0.18420 0.06600
H 	H 	0.09838 0.27710 0.19495 0.06300
C 	C 	0.89200 0.05109 0.17870 -0.03900
C 	C 	0.96302 0.03696 0.19500 -0.01500
C 	C 	0.91577 0.14565 0.18287 -0.00700
H 	H 	0.84950 0.30746 0.17803 0.06200
C 	C 	0.68325 0.97374 0.16983 -0.06200
C 	C 	0.73540 0.94561 0.18607 -0.00800
C 	C 	0.72984 0.86383 0.18037 0.04600
H 	H 	0.68231 0.03413 0.17502 0.03300
C 	C 	0.09426 0.33539 0.20272 -0.18400
C 	C 	0.99770 0.94684 0.24817 -0.04900
C 	C 	0.97425 0.06280 0.22378 0.00600
C 	C 	0.94627 0.25951 0.22129 -0.01100
H 	H 	0.17252 0.10860 0.21310 0.06200
C 	C 	0.03049 0.31679 0.22633 0.04400
C 	C 	0.05256 0.36223 0.25281 -0.07500
H 	H 	0.15815 0.37891 0.21062 0.05700
C 	C 	0.02060 0.03349 0.24529 -0.03000
H 	H 	0.11259 0.20238 0.23949 0.06400
C 	C 	0.91530 0.10354 0.23398 -0.04400
C 	C 	0.81522 0.00948 0.19812 -0.00700
C 	C 	0.92902 0.17276 0.21152 -0.00200
C 	C 	0.82665 0.03697 0.22654 -0.01100
C 	C 	0.75459 0.81708 0.20344 -0.18300
H 	H 	0.75782 0.75908 0.19435 0.05700
H 	H 	0.70741 0.79919 0.22094 0.06500
H 	H 	0.81727 0.85684 0.21305 0.06500
C 	C 	0.67301 0.06932 0.23789 -0.17200
H 	H 	0.71970 0.10202 0.22122 0.06000
H 	H 	0.61202 0.03166 0.22656 0.05600
C 	C 	0.88331 0.27125 0.23711 -0.07200
H 	H 	0.81784 0.23568 0.23105 0.04000
H 	H 	0.95462 0.90309 0.23240 0.03900
H 	H 	0.11822 0.39995 0.25839 0.04300
H 	H 	0.85333 0.38827 0.29045 0.06200
C 	C 	0.99082 0.82246 0.27707 -0.16900
C 	C 	0.90440 0.31919 0.26313 0.04300
H 	H 	0.06502 0.20627 0.27371 0.06600
C 	C 	0.04534 0.47998 0.30623 -0.08800
C 	C 	0.01406 0.39281 0.30217 0.00300
C 	C 	0.98975 0.35734 0.27237 -0.01100
C 	C 	0.98083 0.24698 0.32268 -0.16700
H 	H 	0.04598 0.51897 0.28791 0.04500
H 	H 	0.10672 0.64226 0.31655 0.05100
H 	H 	0.03455 0.22804 0.32333 0.05700
H 	H 	0.94353 0.22145 0.30233 0.06100
C 	C 	0.10704 0.94267 0.31970 0.00600
C 	C 	0.17918 0.92479 0.31926 0.01900
C 	C 	0.07923 0.97304 0.29346 -0.00200
C 	C 	0.23172 0.93983 0.29231 -0.16100
C 	C 	0.02441 0.91603 0.27259 0.02900
C 	C 	0.07851 0.09057 0.26565 0.05200
C 	C 	0.10646 0.05962 0.28973 -0.08500
C 	C 	0.10860 0.18431 0.26258 -0.18900
H 	H 	0.14895 0.10306 0.30582 0.04600
H 	H 	0.25431 0.00674 0.28611 0.05500
H 	H 	0.19372 0.89929 0.27396 0.05700
H 	H 	0.28786 0.92556 0.29589 0.05700
H 	H 	0.04356 0.80220 0.27848 0.05600
H 	H 	0.17256 0.21777 0.27254 0.06000
H 	H 	0.82554 0.28025 0.30059 0.06100
H 	H 	0.95482 0.80618 0.29753 0.05700
H 	H 	0.94799 0.78641 0.25884 0.05500
H 	H 	0.92426 0.12571 0.25709 0.03900
C 	C 	0.67044 0.92380 0.29939 -0.02200
H 	H 	0.53773 0.77561 0.30480 0.04900
C 	C 	0.73851 0.90299 0.29240 0.05200
C 	C 	0.78611 0.93746 0.26769 -0.08100
C 	C 	0.76711 0.99256 0.24987 0.01000
C 	C 	0.69798 0.01249 0.25671 0.02400
C 	C 	0.64967 0.97690 0.28121 -0.05500
H 	H 	0.83875 0.92223 0.26254 0.05000
H 	H 	0.59654 0.99177 0.28640 0.04200
H 	H 	0.66525 0.11829 0.25177 0.05400
C 	C 	0.83577 0.32318 0.28198 -0.18000
H 	H 	0.77544 0.30427 0.26943 0.05600
Ni	Ni	0.24518 0.59862 0.42628 1.09900
O 	O 	0.30987 0.70388 0.45169 -0.70200
Ni	Ni	0.30089 0.79384 0.42670 1.09900
O 	O 	0.30281 0.52762 0.44490 -0.37800
O 	O 	0.43207 0.63304 0.43790 -0.42200
O 	O 	0.14984 0.55248 0.45655 -0.37100
O 	O 	0.06142 0.53695 0.40015 -0.40900
O 	O 	0.38798 0.90203 0.44606 -0.38100
O 	O 	0.22121 0.68682 0.40517 -0.69700
O 	O 	0.17460 0.50111 0.39899 -0.37800
O 	O 	0.26272 0.86768 0.40101 -0.37300
O 	O 	0.12459 0.78989 0.41082 -0.42000
Ni	Ni	0.10176 0.66373 0.40618 1.07100
H 	H 	0.23817 0.68742 0.38468 0.15400
C 	C 	0.46170 0.80701 0.39988 0.30800
O 	O 	0.09976 0.65350 0.44997 -0.42100
C 	C 	0.38576 0.55661 0.44655 0.27100
C 	C 	0.09265 0.58274 0.46145 0.29600
C 	C 	0.18233 0.84763 0.39548 0.28800
C 	C 	0.10671 0.50338 0.38631 0.28600
O 	O 	0.38348 0.79638 0.39494 -0.39700
C 	C 	0.43092 0.69589 0.34792 -0.20000
H 	H 	0.43761 0.65758 0.32937 0.06200
H 	H 	0.37067 0.70300 0.34490 0.06500
H 	H 	0.42855 0.66068 0.36816 0.06300
C 	C 	0.01385 0.34142 0.32594 0.01900
C 	C 	0.04756 0.37908 0.35307 -0.01300
C 	C 	0.07952 0.46642 0.35699 -0.11000
C 	C 	0.07864 0.51750 0.33334 0.07300
H 	H 	0.04785 0.34009 0.37128 0.03900
C 	C 	0.11969 0.61210 0.33611 -0.17000
H 	H 	0.09537 0.63464 0.35510 -0.01300
H 	H 	0.18897 0.63308 0.33836 0.04100
H 	H 	0.93903 0.21701 0.34109 0.05700
C 	C 	0.06237 0.93402 0.34550 -0.09800
C 	C 	0.20250 0.89332 0.34423 -0.01700
C 	C 	0.15738 0.88364 0.37004 -0.12300
C 	C 	0.08869 0.90745 0.37103 0.09700
H 	H 	0.25564 0.87583 0.34356 0.03700
C 	C 	0.04346 0.90507 0.39906 -0.20600
H 	H 	0.00766 0.94910 0.34576 0.04900
H 	H 	0.99967 0.83938 0.40352 0.07200
H 	H 	0.00613 0.94375 0.39773 0.06500
H 	H 	0.08922 0.93077 0.41757 0.07800
H 	H 	0.50599 0.04787 0.43989 0.07400
O 	O 	0.54966 0.20417 0.45820 -0.42500
O 	O 	0.63496 0.51738 0.48021 -0.38300
H 	H 	0.68612 0.35193 0.47186 0.15800
C 	C 	0.55237 0.48369 0.47627 0.26900
O 	O 	0.79982 0.51013 0.48361 -0.37100
O 	O 	0.49182 0.81369 0.42665 -0.40300
C 	C 	0.55269 0.81259 0.32493 -0.09600
C 	C 	0.62120 0.89126 0.32606 0.01000
C 	C 	0.64149 0.93932 0.35233 0.02600
C 	C 	0.59076 0.90921 0.37676 -0.01300
C 	C 	0.52070 0.83154 0.37539 -0.10900
C 	C 	0.50333 0.78142 0.34959 0.09600
C 	C 	0.71518 0.02395 0.35406 -0.17600
H 	H 	0.60423 0.94747 0.39658 0.04300
C 	C 	0.76134 0.84507 0.31141 -0.18400
H 	H 	0.70249 0.06874 0.33983 0.06000
H 	H 	0.77342 0.01825 0.34690 0.05900
H 	H 	0.72688 0.05042 0.37667 0.05800
H 	H 	0.81695 0.83604 0.30318 0.05900
H 	H 	0.70766 0.78248 0.31194 0.06300
H 	H 	0.77680 0.87170 0.33394 0.06400
C 	C 	0.93967 0.53072 0.46844 -0.08600
H 	H 	0.93636 0.56888 0.45031 0.05200
C 	C 	0.51043 0.53548 0.46410 -0.10000
H 	H 	0.54887 0.60120 0.45992 0.05700
C 	C 	0.42677 0.50304 0.45800 -0.10400
Ni	Ni	0.53117 0.30474 0.47353 1.06800
C 	C 	0.51808 0.05757 0.46327 -0.10400
H 	H 	0.38806 0.43737 0.46215 0.06500
C 	C 	0.01479 0.53120 0.47683 -0.09900
Ni	Ni	0.42987 0.73652 0.46010 1.06700
H 	H 	0.28015 0.70180 0.47010 0.15500
C 	C 	0.43671 0.90731 0.46918 0.29600
O 	O 	0.64836 0.35206 0.48779 -0.70400
O 	O 	0.50703 0.40800 0.48601 -0.41700
C 	C 	0.86229 0.48524 0.48503 0.29200
C 	C 	0.55243 0.14413 0.47501 0.29600
C 	C 	0.49151 0.99109 0.48092 -0.08800
O 	O 	0.45588 0.23223 0.50578 -0.40600
O 	O 	0.43511 0.83973 0.48243 -0.42500
H 	H 	0.01837 0.49151 0.49441 0.06100
C 	C 	0.34041 0.06448 0.52416 -0.21500
H 	H 	0.29483 0.99803 0.52617 0.07200
H 	H 	0.40183 0.06391 0.51828 0.08400
H 	H 	0.31730 0.09273 0.50636 0.08000
Ni	Ni	0.65621 0.27778 0.51954 1.09900
O 	O 	0.71622 0.39449 0.53849 -0.69700
Ni	Ni	0.69257 0.46614 0.50885 1.10000
O 	O 	0.85851 0.42471 0.50235 -0.41700
O 	O 	0.74229 0.57572 0.53246 -0.38400
O 	O 	0.58615 0.16009 0.50177 -0.38900
H 	H 	0.50719 0.99922 0.50410 0.06900
H 	H 	0.77823 0.73909 0.55252 0.08100
C 	C 	0.47763 0.23471 0.53351 0.31900
C 	C 	0.41225 0.19708 0.55566 -0.11600
C 	C 	0.34961 0.11401 0.55218 0.10500
C 	C 	0.29595 0.07663 0.57538 -0.10000
H 	H 	0.24698 0.01367 0.57268 0.04900
H 	H 	0.83966 0.81895 0.57860 0.06700
O 	O 	0.68857 0.22291 0.55413 -0.37500
O 	O 	0.82796 0.31035 0.55068 -0.41900
O 	O 	0.55578 0.27592 0.54230 -0.40900
Ni	Ni	0.83686 0.43218 0.54548 1.06800
H 	H 	0.68895 0.39807 0.55693 0.15700
C 	C 	0.76592 0.25391 0.56501 0.28600
C 	C 	0.80602 0.58665 0.55039 0.29600
O 	O 	0.86207 0.55701 0.54303 -0.41400
C 	C 	0.80081 0.60785 0.58113 -0.14100
C 	C 	0.81906 0.69126 0.59013 0.11100
H 	H 	0.77000 0.48114 0.59515 -0.02100
C 	C 	0.83283 0.75870 0.56803 -0.21200
H 	H 	0.89099 0.76993 0.55580 0.07600
C 	C 	0.01040 0.52043 0.97665 -0.09800
C 	C 	0.07484 0.15160 0.78741 0.04600
H 	H 	0.12575 0.72263 0.85111 0.05700
C 	C 	0.01285 0.95018 0.70456 -0.05200
H 	H 	0.98169 0.93190 0.68268 0.04600
H 	H 	0.98962 0.46284 0.96357 0.07600
H 	H 	0.10523 0.21363 0.82956 0.04400
H 	H 	0.07974 0.62750 0.80909 0.05800
C 	C 	0.03051 0.03890 0.74822 -0.01300
C 	C 	0.99404 0.01789 0.72092 -0.00000
H 	H 	0.10461 0.25206 0.69029 0.05700
H 	H 	0.08440 0.64544 0.77063 0.05600
C 	C 	0.07525 0.20006 0.70574 -0.18600
H 	H 	0.07544 0.77037 0.75496 0.04100
H 	H 	0.11594 0.16514 0.70651 0.06500
C 	C 	0.08499 0.99171 0.75724 -0.02400
H 	H 	0.11454 0.00817 0.77936 0.03000
H 	H 	0.82949 0.94978 0.70671 0.04500
C 	C 	0.59197 0.25917 0.85646 0.28400
C 	C 	0.10967 0.98606 0.70462 0.01500
C 	C 	0.14714 0.00878 0.73193 -0.02200
Ni	Ni	0.43271 0.73230 0.98043 1.09900
O 	O 	0.30894 0.68738 0.96796 -0.70200
O 	O 	0.46318 0.67017 0.94732 -0.38600
O 	O 	0.36386 0.54274 0.96035 -0.41500
O 	O 	0.46371 0.83543 0.95361 -0.37100
Ni	Ni	0.25556 0.56704 0.95720 1.06600
O 	O 	0.21228 0.49945 0.99469 -0.39900
H 	H 	0.30098 0.72088 0.95184 0.15500
O 	O 	0.40709 0.90905 0.98101 -0.41500
C 	C 	0.43403 0.58769 0.94683 0.27200
C 	C 	0.09883 0.58096 0.97469 0.29600
C 	C 	0.45643 0.90628 0.96015 0.29500
O 	O 	0.14288 0.57484 0.95220 -0.42400
C 	C 	0.27118 0.02463 0.64485 -0.08100
C 	C 	0.25021 0.07744 0.62656 -0.01200
C 	C 	0.17771 0.09221 0.63203 0.04200
C 	C 	0.13215 0.06087 0.65735 -0.06800
C 	C 	0.15635 0.01276 0.67685 -0.02900
C 	C 	0.22243 0.98886 0.66924 0.06400
C 	C 	0.30614 0.11930 0.60224 0.01000
C 	C 	0.14917 0.14200 0.61111 -0.18000
H 	H 	0.07766 0.07383 0.66183 0.04400
C 	C 	0.24153 0.92543 0.68651 -0.18900
H 	H 	0.32527 0.01099 0.64001 0.04600
C 	C 	0.36930 0.20147 0.60589 0.01800
C 	C 	0.41984 0.24069 0.58228 -0.00900
C 	C 	0.38461 0.24658 0.63513 -0.16800
H 	H 	0.29713 0.95840 0.70111 0.06700
H 	H 	0.25632 0.88295 0.67151 0.06000
H 	H 	0.18764 0.88522 0.69963 0.06400
H 	H 	0.14308 0.11519 0.58867 0.06300
H 	H 	0.19552 0.20853 0.61133 0.06100
H 	H 	0.08687 0.14074 0.61700 0.05900
H 	H 	0.39862 0.20862 0.65199 0.06100
H 	H 	0.32810 0.25685 0.64147 0.05600
C 	C 	0.47339 0.46665 0.94088 -0.09600
H 	H 	0.41303 0.42439 0.94926 0.06500
C 	C 	0.16473 0.18939 0.77801 -0.18700
H 	H 	0.19378 0.25697 0.78446 0.05800
H 	H 	0.16986 0.18596 0.75414 0.06700
H 	H 	0.20006 0.15626 0.78852 0.06600
C 	C 	0.35494 0.09626 0.77223 -0.06700
C 	C 	0.38964 0.17828 0.76174 -0.01600
C 	C 	0.35585 0.19735 0.73609 0.04400
C 	C 	0.27897 0.13837 0.72441 -0.07600
C 	C 	0.23907 0.05885 0.73702 -0.00500
C 	C 	0.28233 0.03521 0.75905 0.03500
C 	C 	0.45996 0.24338 0.77835 0.00700
C 	C 	0.40263 0.27862 0.72064 -0.18100
H 	H 	0.24829 0.15613 0.70669 0.04400
C 	C 	0.24946 0.94618 0.76961 -0.17400
H 	H 	0.38397 0.08027 0.79095 0.04700
C 	C 	0.44272 0.28496 0.80242 0.02400
C 	C 	0.49379 0.30139 0.82759 -0.01800
C 	C 	0.56327 0.28008 0.82820 -0.11000
C 	C 	0.59383 0.26409 0.80129 0.09700
C 	C 	0.54009 0.24278 0.77660 -0.09600
C 	C 	0.36644 0.30482 0.80258 -0.17300
H 	H 	0.47611 0.32525 0.84716 0.04200
C 	C 	0.68286 0.27142 0.79845 -0.19700
H 	H 	0.55763 0.21908 0.75697 0.04800
H 	H 	0.30260 0.92940 0.77583 0.05900
H 	H 	0.21178 0.90060 0.75237 0.06100
H 	H 	0.20998 0.93971 0.78899 0.06500
H 	H 	0.46423 0.28113 0.71334 0.06000
H 	H 	0.41387 0.33326 0.73539 0.05900
H 	H 	0.36680 0.28447 0.70116 0.05600
H 	H 	0.38233 0.36732 0.81313 0.05700
H 	H 	0.31644 0.25673 0.81525 0.06100
H 	H 	0.34289 0.30727 0.78020 0.05800
H 	H 	0.70621 0.29194 0.77623 0.06000
H 	H 	0.68496 0.20946 0.80217 0.06700
H 	H 	0.72633 0.31894 0.81412 0.06300
H 	H 	0.07403 0.22818 0.72746 0.06400
H 	H 	0.12391 0.70541 0.88954 0.05600
H 	H 	0.69877 0.93784 0.68526 0.05700
O 	O 	0.55088 0.26116 0.88046 -0.38100
H 	H 	0.52300 0.97186 0.92099 0.07100
C 	C 	0.86103 0.01292 0.69869 -0.07700
H 	H 	0.43886 0.30885 0.63475 0.05500
C 	C 	0.49734 0.98045 0.94162 -0.08500
C 	C 	0.98797 0.87754 0.72604 0.00500
H 	H 	0.73546 0.74007 0.73360 0.05800
Ni	Ni	0.78493 0.34658 0.94952 1.09700
O 	O 	0.72174 0.30778 0.91024 -0.70300
Ni	Ni	0.61334 0.31660 0.91855 1.09500
O 	O 	0.87158 0.29633 0.94225 -0.38100
O 	O 	0.76773 0.17538 0.92567 -0.42500
O 	O 	0.86294 0.45565 0.93015 -0.39100
Ni	Ni	0.69923 0.19815 0.89242 1.07200
O 	O 	0.80734 0.50732 0.99488 -0.41200
O 	O 	0.58300 0.12359 0.90775 -0.39700
O 	O 	0.68165 0.36714 0.95615 -0.70400
O 	O 	0.84458 0.39611 0.98786 -0.39500
O 	O 	0.52032 0.35608 0.92971 -0.37500
O 	O 	0.61952 0.49052 0.93591 -0.41400
Ni	Ni	0.71304 0.48724 0.96414 1.06600
H 	H 	0.75025 0.34969 0.89538 0.14100
H 	H 	0.65241 0.33485 0.97325 0.14900
C 	C 	0.55609 0.13375 0.93343 0.29400
O 	O 	0.79472 0.54261 0.93156 -0.39500
C 	C 	0.84833 0.22468 0.92782 0.29000
C 	C 	0.83611 0.50685 0.91699 0.28400
C 	C 	0.54043 0.43577 0.93682 0.26900
C 	C 	0.86577 0.47679 0.99308 0.29600
O 	O 	0.55534 0.20670 0.94119 -0.38800
O 	O 	0.64521 0.22219 0.85627 -0.41500
C 	C 	0.02571 0.89853 0.75303 -0.01000
C 	C 	0.94383 0.17437 0.67658 -0.07200
C 	C 	0.86206 0.12341 0.66675 -0.01500
C 	C 	0.81856 0.04390 0.67903 0.04000
C 	C 	0.94563 0.06090 0.70666 -0.01200
C 	C 	0.98670 0.14364 0.69611 0.04800
C 	C 	0.82710 0.14935 0.64105 0.01000
C 	C 	0.72883 0.98969 0.66981 -0.17000
H 	H 	0.97569 0.23681 0.66788 0.04100
C 	C 	0.79325 0.21022 0.64377 0.01700
C 	C 	0.77337 0.24377 0.61857 -0.01700
C 	C 	0.78506 0.21589 0.59088 -0.11800
C 	C 	0.81461 0.15182 0.58817 0.10400
C 	C 	0.83616 0.11954 0.61334 -0.10000
C 	C 	0.78168 0.24210 0.67339 -0.16800
H 	H 	0.74971 0.29237 0.62048 0.01800
C 	C 	0.82528 0.11935 0.55853 -0.20700
H 	H 	0.86196 0.07259 0.61140 0.04900
H 	H 	0.72765 0.96189 0.64780 0.06200
H 	H 	0.69064 0.02758 0.66924 0.05700
H 	H 	0.74241 0.27882 0.67199 0.05300
H 	H 	0.84406 0.28331 0.68310 0.05700
H 	H 	0.74964 0.18865 0.68803 0.05800
H 	H 	0.84259 0.06478 0.56020 0.06400
H 	H 	0.87588 0.16977 0.54678 0.07600
H 	H 	0.76542 0.09855 0.54561 0.07600
H 	H 	0.46744 0.30437 0.58495 0.03400
C 	C 	0.82980 0.71244 0.61996 -0.10500
C 	C 	0.82124 0.65104 0.64065 0.01500
C 	C 	0.79087 0.56593 0.63182 0.00900
C 	C 	0.78448 0.54529 0.60203 -0.01100
C 	C 	0.85848 0.67824 0.67005 -0.01700
C 	C 	0.77097 0.49769 0.65399 -0.16500
H 	H 	0.85011 0.77754 0.62699 0.05400
C 	C 	0.94535 0.70021 0.67515 0.04500
C 	C 	0.98657 0.75501 0.69841 -0.06600
C 	C 	0.94275 0.78995 0.71561 -0.01300
C 	C 	0.85401 0.75384 0.71437 0.04700
C 	C 	0.81209 0.69902 0.69108 -0.07000
C 	C 	0.99615 0.67458 0.65377 -0.17500
H 	H 	0.05428 0.77790 0.70099 0.03900
C 	C 	0.80445 0.77387 0.73764 -0.18300
H 	H 	0.74439 0.67715 0.68824 0.04100
H 	H 	0.73723 0.51009 0.67262 0.05800
H 	H 	0.83008 0.49473 0.66219 0.05300
H 	H 	0.72971 0.43532 0.64433 0.05000
H 	H 	0.05926 0.68556 0.66307 0.05400
H 	H 	0.00498 0.71167 0.63363 0.06200
H 	H 	0.96378 0.60668 0.64807 0.05700
H 	H 	0.82001 0.84218 0.73846 0.06200
H 	H 	0.81991 0.75461 0.75915 0.06500
C 	C 	0.95551 0.53500 0.99389 -0.08600
C 	C 	0.50850 0.05849 0.95086 -0.10000
H 	H 	0.48400 0.06715 0.97173 0.05900
C 	C 	0.48907 0.54786 0.93596 -0.10000
H 	H 	0.54733 0.58776 0.92565 0.07200
C 	C 	0.95918 0.25260 0.85692 -0.10300
C 	C 	0.95272 0.17090 0.85207 0.00300
C 	C 	0.93293 0.11424 0.87536 0.01900
C 	C 	0.90671 0.13606 0.90180 -0.02000
C 	C 	0.90463 0.21515 0.90567 -0.13300
C 	C 	0.93928 0.27663 0.88401 0.08000
C 	C 	0.97122 0.14699 0.82290 -0.01300
C 	C 	0.93604 0.02947 0.87177 -0.17700
H 	H 	0.88371 0.08997 0.91879 0.03500
C 	C 	0.95265 0.36680 0.88912 -0.20300
H 	H 	0.97936 0.29751 0.83947 0.04700
C 	C 	0.90585 0.10201 0.80261 0.03900
C 	C 	0.92579 0.07366 0.77615 -0.06900
C 	C 	0.01033 0.09317 0.76941 -0.01400
C 	C 	0.05512 0.17416 0.81472 -0.07600
C 	C 	0.81505 0.08135 0.80949 -0.17500
H 	H 	0.87558 0.03086 0.76212 0.04200
H 	H 	0.89118 0.37166 0.88798 0.05600
H 	H 	0.99324 0.40833 0.87225 0.06400
H 	H 	0.98493 0.39084 0.91048 0.08600
H 	H 	0.99482 0.03556 0.86088 0.06300
H 	H 	0.88062 0.98708 0.85862 0.06200
H 	H 	0.93521 0.00022 0.89321 0.06000
H 	H 	0.77345 0.05750 0.78983 0.05500
H 	H 	0.80796 0.13843 0.81758 0.05000
H 	H 	0.79338 0.03244 0.82636 0.05200
C 	C 	0.95603 0.78364 0.82437 -0.07200
C 	C 	0.98073 0.71713 0.82085 -0.01200
C 	C 	0.02285 0.71114 0.79537 0.04100
C 	C 	0.04034 0.77289 0.77399 -0.06900
C 	C 	0.01061 0.83647 0.77672 -0.01300
C 	C 	0.96621 0.84037 0.80189 0.04800
C 	C 	0.95218 0.64873 0.84227 0.00900
C 	C 	0.04449 0.63673 0.79006 -0.18000
C 	C 	0.92828 0.90353 0.80481 -0.18600
H 	H 	0.92422 0.78828 0.84405 0.04700
C 	C 	0.00081 0.65348 0.86775 0.01700
C 	C 	0.96339 0.60114 0.89123 -0.01300
C 	C 	0.87749 0.54702 0.89003 -0.10700
C 	C 	0.82984 0.54033 0.86407 0.08500
C 	C 	0.86907 0.58819 0.83996 -0.09200
C 	C 	0.08969 0.71950 0.87115 -0.16900
H 	H 	0.99988 0.60615 0.91111 0.04600
C 	C 	0.73852 0.47967 0.86122 -0.19500
H 	H 	0.83286 0.58276 0.81998 0.04900
H 	H 	0.97837 0.96539 0.81129 0.07100
H 	H 	0.87896 0.88491 0.82160 0.06100
H 	H 	0.89726 0.90794 0.78402 0.06800
H 	H 	0.98568 0.57924 0.78639 0.06200
H 	H 	0.08826 0.78176 0.87544 0.06300
H 	H 	0.70484 0.47205 0.88205 0.04300
H 	H 	0.73506 0.41791 0.85346 0.04500
H 	H 	0.70439 0.50202 0.84508 0.06500
