data_crystal

_cell_length_a 20.01617
_cell_length_b 21.72801
_cell_length_c 31.34206
_cell_angle_alpha 60.82677
_cell_angle_beta  118.91411
_cell_angle_gamma 133.32688

_symmetry_space_group_name_	'P 1'
_symmetry_space_group_name_H-M	'P 1'

loop_
_symmetry_equiv_pos_as_xyz
  x,y,z

loop_
_atom_site_label
_atom_site_type_symbol
_atom_site_fract_x
_atom_site_fract_y
_atom_site_fract_z
_atom_site_charge
Co	Co	0.00967 0.09237 0.09083 1.18700
O 	O 	0.00476 0.19703 0.13125 -0.37800
O 	O 	0.00385 0.09685 0.52404 -0.44600
O 	O 	0.01215 0.00237 0.98063 -0.39500
O 	O 	0.01174 0.95932 0.74978 -0.25900
C 	C 	0.00551 0.04132 0.32511 0.38000
H 	H 	0.00787 0.07337 0.38128 0.14700
O 	O 	0.00022 0.07129 0.72523 -0.38000
C 	C 	0.99975 0.99694 0.26092 0.34200
C 	C 	0.01234 0.01247 0.76092 0.27900
C 	C 	0.98988 0.02212 0.37071 -0.23600
N 	N 	0.04696 0.38184 0.49913 -0.08600
Co	Co	0.07738 0.02809 0.05254 1.16700
Co	Co	0.10976 0.89989 0.05688 1.18500
O 	O 	0.06912 0.12424 0.03925 -0.44900
C 	C 	0.09276 0.23371 0.13549 0.30700
C 	C 	0.12111 0.80061 0.16463 0.30200
O 	O 	0.12666 0.99529 0.99040 -0.35800
O 	O 	0.11398 0.20158 0.12131 -0.36800
O 	O 	0.09281 0.79630 0.11854 -0.38600
O 	O 	0.09621 0.83095 0.17770 -0.34800
O 	O 	0.06218 0.93276 0.08295 -0.72800
Co	Co	0.03339 0.01447 0.53822 1.16400
Co	Co	0.96537 0.07076 0.58382 1.16100
Co	Co	0.09552 0.90218 0.54735 1.19000
C 	C 	0.03153 0.21390 0.62013 0.33300
C 	C 	0.19620 0.88789 0.65158 0.29100
O 	O 	0.97453 0.86515 0.49132 -0.36500
O 	O 	0.94472 0.16310 0.62518 -0.42500
O 	O 	0.05807 0.19004 0.60294 -0.36700
O 	O 	0.20812 0.94158 0.60720 -0.36600
O 	O 	0.13804 0.87003 0.67216 -0.33900
O 	O 	0.04765 0.93389 0.57466 -0.71800
C 	C 	0.05607 0.07590 0.87052 0.26600
C 	C 	0.05976 0.08193 0.82483 -0.05800
H 	H 	0.08468 0.14369 0.79701 0.09800
F 	F 	0.08818 0.14832 0.87961 -0.41700
F 	F 	0.03749 0.12250 0.29438 -0.45000
C 	C 	0.09661 0.30118 0.63033 -0.07800
C 	C 	0.08778 0.36836 0.59434 0.02700
C 	C 	0.11243 0.43433 0.60984 -0.02200
C 	C 	0.06447 0.37541 0.54144 0.09800
C 	C 	0.09652 0.49941 0.57330 0.11600
N 	N 	0.08374 0.55136 0.54414 -0.09000
C 	C 	0.22851 0.83129 0.67129 -0.05100
C 	C 	0.29058 0.85432 0.64802 -0.01500
C 	C 	0.36499 0.94523 0.63145 0.16800
N 	N 	0.42449 0.01774 0.61819 -0.15100
N 	N 	0.34985 0.82411 0.57419 -0.08800
C 	C 	0.18930 0.39464 0.11826 0.02100
C 	C 	0.16662 0.31470 0.15333 -0.07000
C 	C 	0.21801 0.41876 0.07502 0.10000
N 	N 	0.24217 0.43862 0.04073 -0.08900
N 	N 	0.22106 0.20058 0.27479 -0.08700
C 	C 	0.16978 0.75925 0.20216 -0.05500
C 	C 	0.02226 0.61792 0.22521 0.13900
N 	N 	0.94829 0.57884 0.23129 -0.12700
N 	N 	0.57542 0.93326 0.61077 -0.05100
N 	N 	0.93073 0.55900 0.71701 -0.10100
N 	N 	0.03845 0.33912 0.99097 -0.04100
N 	N 	0.10222 0.78119 0.03159 -0.13300
C 	C 	0.75529 0.29474 0.04905 0.11600
N 	N 	0.68888 0.23341 0.07669 -0.13500
C 	C 	0.66362 0.25790 0.09533 0.12700
N 	N 	0.72027 0.34157 0.09755 -0.13300
C 	C 	0.77998 0.40460 0.06665 0.12800
N 	N 	0.79810 0.38158 0.04173 -0.12600
C 	C 	0.72688 0.29928 0.53144 0.12700
N 	N 	0.78982 0.37784 0.54422 -0.12900
C 	C 	0.75685 0.41856 0.54122 0.13000
N 	N 	0.66296 0.37981 0.52722 -0.13200
C 	C 	0.60090 0.30079 0.51705 0.13300
N 	N 	0.63277 0.26206 0.51738 -0.13100
C 	C 	0.27239 0.62730 0.21374 0.13100
N 	N 	0.21774 0.55478 0.19624 -0.12300
C 	C 	0.25926 0.52377 0.19714 0.13200
N 	N 	0.35393 0.56715 0.21273 -0.13300
C 	C 	0.40891 0.64109 0.22768 0.13500
N 	N 	0.36753 0.66836 0.23071 -0.12900
C 	C 	0.26251 0.64702 0.68354 0.13300
N 	N 	0.35560 0.68153 0.69599 -0.12800
C 	C 	0.38232 0.63943 0.69508 0.13600
N 	N 	0.31636 0.56018 0.68500 -0.13200
C 	C 	0.22343 0.52397 0.67311 0.13300
N 	N 	0.19561 0.56785 0.67148 -0.12400
Co	Co	0.93851 0.92718 0.17135 1.19200
Co	Co	0.99781 0.85899 0.12729 1.16700
C 	C 	0.27594 0.07214 0.08149 0.23000
Co	Co	0.91397 0.06637 0.16379 1.15700
C 	C 	0.91500 0.74832 0.05580 0.28200
O 	O 	0.81792 0.05588 0.09591 -0.40500
O 	O 	0.96160 0.02744 0.14196 -0.79600
C 	C 	0.84831 0.10913 0.05463 0.30300
O 	O 	0.93244 0.82476 0.17748 -0.44900
C 	C 	0.76130 0.87659 0.17569 0.30700
O 	O 	0.03045 0.98644 0.12069 -0.52400
C 	C 	0.05601 0.99961 0.96124 0.38400
O 	O 	0.90051 0.10718 0.04106 -0.39300
O 	O 	0.81831 0.94025 0.19793 -0.37700
O 	O 	0.79447 0.86654 0.15372 -0.37400
O 	O 	0.01557 0.07055 0.22851 -0.36300
O 	O 	0.98448 0.93732 0.24719 -0.36100
O 	O 	0.24188 0.98952 0.09190 -0.32700
O 	O 	0.22093 0.09943 0.05768 -0.36600
O 	O 	0.97015 0.81657 0.02548 -0.40100
O 	O 	0.89784 0.75804 0.08802 -0.36800
Co	Co	0.95211 0.93007 0.67775 1.19000
Co	Co	0.01921 0.87398 0.63167 1.19700
C 	C 	0.21144 0.09599 0.51531 0.30800
Co	Co	0.88163 0.03445 0.66804 1.14800
C 	C 	0.94391 0.72713 0.59566 0.26400
O 	O 	0.77138 0.99456 0.60754 -0.32700
O 	O 	0.94240 0.01351 0.64247 -0.79300
C 	C 	0.78448 0.04991 0.56393 0.24000
O 	O 	0.97758 0.84528 0.69092 -0.45400
C 	C 	0.76803 0.84131 0.69447 0.31200
O 	O 	0.01928 0.98914 0.61408 -0.52200
C 	C 	0.96176 0.92430 0.45694 0.30200
O 	O 	0.84077 0.06581 0.54299 -0.36700
O 	O 	0.95637 0.97134 0.46984 -0.34900
O 	O 	0.81381 0.90804 0.71218 -0.37500
O 	O 	0.80872 0.84089 0.67197 -0.38300
O 	O 	0.16260 0.02566 0.50036 -0.41900
O 	O 	0.17220 0.10668 0.53241 -0.38700
O 	O 	0.03056 0.77478 0.59153 -0.35800
O 	O 	0.91813 0.75823 0.60759 -0.38200
C 	C 	0.99364 0.92348 0.89735 -0.15300
C 	C 	0.02493 0.99727 0.90774 -0.00800
C 	C 	0.02908 0.00852 0.81430 -0.14500
C 	C 	0.99608 0.92907 0.85116 0.38200
F 	F 	0.96776 0.85760 0.84294 -0.43600
H 	H 	0.97172 0.86272 0.92604 0.11400
C 	C 	0.94927 0.89243 0.34297 -0.06700
C 	C 	0.98772 0.97696 0.31133 -0.12100
C 	C 	0.95517 0.93872 0.40326 -0.02400
C 	C 	0.93207 0.87301 0.38817 0.30400
F 	F 	0.89407 0.79045 0.41756 -0.43400
H 	H 	0.93154 0.84118 0.33255 0.09700
C 	C 	0.15434 0.43787 0.66081 0.00400
C 	C 	0.16025 0.36887 0.69647 -0.02000
C 	C 	0.14290 0.30783 0.68036 0.02000
C 	C 	0.18924 0.36370 0.74966 0.11200
C 	C 	0.18181 0.25889 0.71357 0.09100
N 	N 	0.21362 0.22033 0.74002 -0.09900
N 	N 	0.21239 0.35956 0.79214 -0.07900
C 	C 	0.48068 0.68608 0.69529 -0.00100
C 	C 	0.50480 0.71792 0.64975 -0.01800
C 	C 	0.59814 0.75986 0.64992 0.02100
C 	C 	0.66775 0.77150 0.69547 -0.07200
C 	C 	0.64093 0.73061 0.74133 0.02300
C 	C 	0.54805 0.69010 0.74120 -0.02000
C 	C 	0.43345 0.70757 0.60277 0.11200
C 	C 	0.70873 0.72948 0.78855 0.10200
C 	C 	0.52167 0.65229 0.78825 0.11100
C 	C 	0.62293 0.79256 0.60315 0.10300
N 	N 	0.50055 0.62209 0.82576 -0.09000
N 	N 	0.64263 0.81861 0.56581 -0.09600
N 	N 	0.76248 0.72821 0.82636 -0.07100
N 	N 	0.37648 0.69911 0.56534 -0.09300
C 	C 	0.18159 0.74619 0.70292 0.01500
C 	C 	0.18557 0.68229 0.70401 -0.01400
C 	C 	0.23677 0.70383 0.67383 -0.00200
C 	C 	0.28301 0.78890 0.64293 -0.00800
C 	C 	0.14176 0.72818 0.73917 0.11500
C 	C 	0.32032 0.80845 0.60479 0.10500
C 	C 	0.13819 0.59544 0.73640 0.11600
N 	N 	0.10034 0.52601 0.76224 -0.08300
N 	N 	0.11026 0.71396 0.76829 -0.07700
C 	C 	0.20366 0.44526 0.17918 0.00300
C 	C 	0.20003 0.45687 0.12975 -0.01900
C 	C 	0.18263 0.30841 0.20362 0.02100
C 	C 	0.18997 0.36801 0.21546 -0.01700
C 	C 	0.21322 0.53524 0.09170 0.11500
C 	C 	0.20351 0.24821 0.24315 0.12200
C 	C 	0.18788 0.35207 0.26555 0.12800
N 	N 	0.18618 0.33952 0.30550 -0.08800
N 	N 	0.22390 0.59794 0.06138 -0.08900
C 	C 	0.51115 0.70148 0.22824 -0.00000
C 	C 	0.55622 0.66914 0.23207 -0.01900
C 	C 	0.63134 0.72330 0.20820 0.01900
C 	C 	0.66337 0.81063 0.18216 -0.06800
C 	C 	0.61683 0.84076 0.17922 0.02200
C 	C 	0.55435 0.79131 0.20991 -0.01900
C 	C 	0.52950 0.58272 0.26310 0.11000
C 	C 	0.63694 0.92455 0.14670 0.09900
C 	C 	0.54979 0.83481 0.23058 0.11500
C 	C 	0.67657 0.68984 0.21143 0.09400
N 	N 	0.54656 0.86971 0.24728 -0.09300
N 	N 	0.71264 0.66305 0.21405 -0.09700
N 	N 	0.65226 0.99135 0.12094 -0.08400
N 	N 	0.50810 0.51371 0.28787 -0.09600
C 	C 	0.23189 0.67035 0.20722 0.00000
C 	C 	0.14754 0.62230 0.22195 -0.01200
C 	C 	0.11470 0.66686 0.21749 0.00500
C 	C 	0.26243 0.80374 0.20042 0.01000
C 	C 	0.28485 0.76224 0.19225 -0.01400
C 	C 	0.09456 0.52845 0.24103 0.11300
C 	C 	0.33323 0.89274 0.20481 0.10700
C 	C 	0.34765 0.81174 0.15968 0.10900
N 	N 	0.39722 0.85135 0.13324 -0.09500
N 	N 	0.39083 0.96379 0.20886 -0.08100
N 	N 	0.05220 0.45345 0.25626 -0.09000
C 	C 	0.75692 0.24444 0.54334 -0.00100
C 	C 	0.71718 0.16277 0.57799 -0.03000
C 	C 	0.70544 0.09395 0.57400 0.01700
C 	C 	0.75960 0.11181 0.54733 -0.06700
C 	C 	0.80351 0.19495 0.51332 0.01300
C 	C 	0.80084 0.26080 0.51092 -0.02600
C 	C 	0.68624 0.14890 0.61717 0.09400
C 	C 	0.83994 0.20925 0.47671 0.09300
C 	C 	0.84146 0.34410 0.47465 0.10100
C 	C 	0.63306 0.00456 0.59439 0.01600
N 	N 	0.87389 0.41071 0.44570 -0.10000
N 	N 	0.86886 0.22066 0.44735 -0.10200
N 	N 	0.66168 0.13778 0.64853 -0.10500
C 	C 	0.82124 0.50394 0.55444 -0.00400
C 	C 	0.81138 0.57118 0.51934 -0.01600
C 	C 	0.82809 0.63132 0.53613 0.01500
C 	C 	0.87612 0.63875 0.58598 -0.05900
C 	C 	0.88624 0.57200 0.62151 0.01000
C 	C 	0.86262 0.50686 0.60555 -0.02100
C 	C 	0.77991 0.57590 0.46605 0.12700
C 	C 	0.91156 0.56524 0.67455 0.08500
C 	C 	0.87948 0.44226 0.64179 0.10100
C 	C 	0.78894 0.68014 0.50342 0.12200
N 	N 	0.89299 0.39068 0.67071 -0.10500
N 	N 	0.75710 0.71876 0.47735 -0.08600
N 	N 	0.75473 0.57958 0.42351 -0.08800
C 	C 	0.50109 0.25019 0.51620 -0.00300
C 	C 	0.43302 0.23991 0.47018 -0.02400
C 	C 	0.33897 0.19768 0.46905 0.02200
C 	C 	0.31207 0.16215 0.51422 -0.08000
C 	C 	0.38149 0.17778 0.55971 0.01800
C 	C 	0.47577 0.22114 0.56079 -0.02000
C 	C 	0.46003 0.27375 0.42395 0.10600
C 	C 	0.35554 0.14762 0.60562 0.08800
C 	C 	0.54693 0.23590 0.60782 0.10700
C 	C 	0.27034 0.19259 0.42138 0.09100
N 	N 	0.60373 0.24786 0.64527 -0.10100
N 	N 	0.21583 0.18883 0.38325 -0.08100
N 	N 	0.33490 0.12358 0.64225 -0.11200
N 	N 	0.48160 0.30079 0.38708 -0.09700
C 	C 	0.77357 0.26507 0.02360 0.01500
C 	C 	0.86652 0.30691 0.02209 -0.04400
C 	C 	0.88791 0.25901 0.01901 0.04300
C 	C 	0.81969 0.16892 0.02247 -0.10200
C 	C 	0.72447 0.13473 0.01101 0.06200
C 	C 	0.70078 0.18291 0.01097 -0.06400
C 	C 	0.93653 0.39956 0.01857 0.10600
C 	C 	0.65116 0.04896 0.00091 0.00100
C 	C 	0.60236 0.14819 0.99757 0.13800
C 	C 	0.97209 0.30377 0.00392 0.02500
N 	N 	0.52313 0.11873 0.98681 -0.11100
N 	N 	0.59264 0.98042 0.99288 -0.01900
N 	N 	0.99262 0.47381 0.01528 -0.10700
C 	C 	0.81360 0.49619 0.05522 -0.01100
C 	C 	0.91093 0.56403 0.06394 0.00500
C 	C 	0.94176 0.64846 0.05706 -0.03000
C 	C 	0.87995 0.66024 0.05726 -0.05500
C 	C 	0.78315 0.59083 0.05217 0.01100
C 	C 	0.74918 0.51220 0.04629 -0.01500
C 	C 	0.97968 0.54595 0.08468 0.05800
C 	C 	0.71754 0.60141 0.05022 0.10000
C 	C 	0.64852 0.44970 0.02965 0.10300
C 	C 	0.03099 0.72246 0.04299 0.12800
N 	N 	0.56774 0.40124 0.01627 -0.10400
N 	N 	0.66515 0.60980 0.04866 -0.09600
N 	N 	0.03487 0.53172 0.10165 -0.06600
C 	C 	0.37688 0.13748 0.08322 -0.04800
C 	C 	0.40797 0.17312 0.03972 -0.00600
C 	C 	0.50131 0.20973 0.04389 -0.03000
C 	C 	0.56307 0.20837 0.09198 -0.00600
C 	C 	0.53359 0.17917 0.13500 -0.01900
C 	C 	0.44224 0.14935 0.12985 0.00600
C 	C 	0.34439 0.17402 0.99050 0.12200
C 	C 	0.59720 0.18005 0.18430 0.09800
C 	C 	0.41708 0.13588 0.17145 0.08700
C 	C 	0.53689 0.25772 0.99877 0.13200
N 	N 	0.39694 0.12516 0.20464 -0.10900
N 	N 	0.56516 0.29655 0.96275 -0.09900
N 	N 	0.64797 0.18073 0.22366 -0.10500
N 	N 	0.29412 0.17518 0.95114 -0.08500
