data_crystal

_cell_length_a 21.69473
_cell_length_b 19.79972
_cell_length_c 46.00413
_cell_angle_alpha 88.55989
_cell_angle_beta  88.70169
_cell_angle_gamma 107.17637

_symmetry_space_group_name_	'P 1'
_symmetry_space_group_name_H-M	'P 1'

loop_
_symmetry_equiv_pos_as_xyz
  x,y,z

loop_
_atom_site_label
_atom_site_type_symbol
_atom_site_fract_x
_atom_site_fract_y
_atom_site_fract_z
_atom_site_charge
O 	O 	0.01669 0.87501 0.65131 -0.39500
C 	C 	0.00581 0.31556 0.11052 0.10400
C 	C 	0.00478 0.83662 0.33132 0.01500
C 	C 	0.00089 0.56274 0.96463 0.03100
C 	C 	0.01071 0.48537 0.47039 -0.12400
H 	H 	0.01117 0.45141 0.48927 0.07000
C 	C 	0.01126 0.20265 0.25505 0.36700
O 	O 	0.02728 0.13712 0.13425 -0.45700
Zn	Zn	0.03874 0.89678 0.75794 1.20300
O 	O 	0.03956 0.90818 0.71538 -0.77700
O 	O 	0.04958 0.06762 0.74036 -0.44100
O 	O 	0.02705 0.16221 0.23566 -0.42500
C 	C 	0.04211 0.36398 0.08900 -0.03200
C 	C 	0.03676 0.80704 0.35231 0.05100
C 	C 	0.03951 0.62866 0.95838 -0.15000
H 	H 	0.01898 0.66945 0.95069 0.08300
H 	H 	0.02129 0.52352 0.97414 0.03900
Zn	Zn	0.07479 0.01190 0.70963 1.21900
H 	H 	0.06453 0.88137 0.70488 0.18900
O 	O 	0.07762 0.59272 0.44599 -0.39800
C 	C 	0.07295 0.52984 0.45763 0.32300
O 	O 	0.07307 0.14331 0.17844 -0.37500
C 	C 	0.07557 0.13350 0.15019 0.32500
C 	C 	0.07478 0.40634 0.07138 -0.01000
C 	C 	0.05919 0.24628 0.27287 -0.12300
C 	C 	0.06784 0.78549 0.36972 -0.11600
O 	O 	0.08774 0.01233 0.63852 -0.46500
O 	O 	0.09092 0.70248 0.40317 -0.41400
C 	C 	0.09272 0.28594 0.28946 0.07400
O 	O 	0.11246 0.96788 0.77459 -0.44300
C 	C 	0.11005 0.76472 0.38934 0.30900
C 	C 	0.10951 0.64764 0.96365 0.32200
C 	C 	0.11350 0.45827 0.05171 0.06200
C 	C 	0.11622 0.09481 0.13884 -0.15100
C 	C 	0.00522 0.03941 0.76075 0.34200
C 	C 	0.13034 0.06552 0.65028 0.32600
O 	O 	0.13208 0.07271 0.67873 -0.43500
O 	O 	0.12358 0.50608 0.45850 -0.46100
C 	C 	0.12375 0.33456 0.31017 -0.02300
O 	O 	0.13464 0.55839 0.39278 -0.44200
O 	O 	0.14270 0.60427 0.95540 -0.45600
O 	O 	0.13708 0.70546 0.97795 -0.39400
C 	C 	0.14139 0.05725 0.12608 0.07500
Zn	Zn	0.15049 0.64637 0.41418 1.22200
C 	C 	0.14539 0.50566 0.03583 -0.11700
C 	C 	0.14356 0.37709 0.32854 -0.01700
O 	O 	0.16172 0.01723 0.73152 -0.40600
C 	C 	0.16322 0.00753 0.75980 0.31300
C 	C 	0.16186 0.00953 0.10899 -0.07100
C 	C 	0.15970 0.42722 0.35041 0.06300
O 	O 	0.16449 0.81141 0.39573 -0.45100
O 	O 	0.17066 0.62711 0.02338 -0.44300
C 	C 	0.17433 0.96646 0.09382 0.02000
C 	C 	0.16871 0.46996 0.36919 -0.11400
C 	C 	0.17522 0.52048 0.39148 0.32600
C 	C 	0.17997 0.56642 0.01827 0.33600
C 	C 	0.18454 0.10606 0.63253 -0.11900
C 	C 	0.18622 0.91383 0.07648 0.05200
C 	C 	0.19739 0.86731 0.06301 -0.11000
Zn	Zn	0.58361 0.30639 0.92413 1.22000
Zn	Zn	0.68616 0.42899 0.96228 1.19100
C 	C 	0.77075 0.24134 0.88086 0.31800
Zn	Zn	0.73539 0.34866 0.91601 1.22100
Zn	Zn	0.62994 0.21068 0.88422 1.19600
H 	H 	0.67510 0.29609 0.96297 0.18000
C 	C 	0.71798 0.48343 0.89789 0.32100
O 	O 	0.53530 0.17355 0.88296 -0.47100
O 	O 	0.50791 0.27322 0.89383 -0.39500
O 	O 	0.67015 0.33100 0.94811 -0.78600
O 	O 	0.59574 0.42897 0.97352 -0.46700
O 	O 	0.54528 0.21512 0.94707 -0.43100
O 	O 	0.54700 0.38571 0.93122 -0.43600
O 	O 	0.62430 0.17241 0.92907 -0.42400
O 	O 	0.78186 0.48030 0.96012 -0.45600
H 	H 	0.64456 0.34142 0.87636 0.17200
O 	O 	0.81308 0.38643 0.94460 -0.40900
O 	O 	0.64953 0.31165 0.89324 -0.79300
O 	O 	0.71468 0.19250 0.88326 -0.45800
O 	O 	0.75604 0.44266 0.89637 -0.44500
O 	O 	0.78809 0.28936 0.90083 -0.42500
O 	O 	0.67596 0.47611 0.91975 -0.41600
C 	C 	0.49789 0.21437 0.87955 0.32400
C 	C 	0.54663 0.41772 0.95601 0.34000
C 	C 	0.57244 0.16391 0.94564 0.31900
C 	C 	0.82693 0.44861 0.95636 0.32300
Zn	Zn	0.65152 0.37727 0.50081 1.22100
Zn	Zn	0.53089 0.29559 0.46020 1.19500
C 	C 	0.68531 0.14993 0.52708 0.31600
Zn	Zn	0.59257 0.21098 0.50043 1.22200
Zn	Zn	0.73653 0.30133 0.53027 1.19400
H 	H 	0.64539 0.28570 0.45609 0.18100
C 	C 	0.47971 0.24473 0.52373 0.32700
O 	O 	0.78262 0.40035 0.53898 -0.47200
O 	O 	0.69868 0.44798 0.53348 -0.39500
O 	O 	0.61648 0.29139 0.47219 -0.79000
O 	O 	0.54809 0.39957 0.45620 -0.47900
O 	O 	0.72823 0.41905 0.47500 -0.44000
O 	O 	0.58623 0.43020 0.50135 -0.43200
O 	O 	0.76815 0.32715 0.48489 -0.42000
O 	O 	0.47047 0.19910 0.45770 -0.46900
H 	H 	0.62260 0.29872 0.54526 0.17100
O 	O 	0.54132 0.13773 0.46934 -0.40400
O 	O 	0.64410 0.29478 0.52643 -0.79000
O 	O 	0.73620 0.20413 0.52102 -0.46000
O 	O 	0.51181 0.19792 0.52296 -0.44600
O 	O 	0.63462 0.13745 0.51063 -0.42400
O 	O 	0.49259 0.29822 0.50464 -0.41700
C 	C 	0.75592 0.45103 0.54355 0.32900
C 	C 	0.55316 0.43996 0.47876 0.34700
C 	C 	0.77497 0.38984 0.47270 0.32900
C 	C 	0.48740 0.14067 0.45752 0.32600
Zn	Zn	0.94092 0.89572 0.70470 1.22100
Zn	Zn	0.99334 0.97467 0.64834 1.19300
O 	O 	0.90511 0.91719 0.63929 -0.46100
O 	O 	0.85394 0.90086 0.68426 -0.37800
O 	O 	0.95852 0.81722 0.76400 -0.47600
O 	O 	0.93735 0.81183 0.68239 -0.43600
O 	O 	0.88870 0.86761 0.74176 -0.42100
H 	H 	0.96071 0.02563 0.69441 0.15600
O 	O 	0.98555 0.99213 0.69023 -0.78300
O 	O 	0.98283 0.97036 0.76492 -0.42100
C 	C 	0.85389 0.91347 0.65587 0.31400
C 	C 	0.90018 0.82292 0.76120 0.34500
C 	C 	0.97274 0.81555 0.65878 0.31900
Zn	Zn	0.30191 0.69330 0.41163 1.22400
Zn	Zn	0.21606 0.56439 0.45507 1.19400
Zn	Zn	0.24890 0.80129 0.38278 1.19500
H 	H 	0.21872 0.69490 0.45750 0.18300
O 	O 	0.34137 0.83920 0.37072 -0.46400
O 	O 	0.37062 0.73735 0.37711 -0.39300
O 	O 	0.22142 0.66241 0.44183 -0.78700
O 	O 	0.30998 0.56927 0.45805 -0.46400
O 	O 	0.34840 0.77118 0.43593 -0.44500
O 	O 	0.33823 0.61379 0.41177 -0.44200
O 	O 	0.27556 0.83081 0.42724 -0.41700
H 	H 	0.23370 0.67524 0.36833 0.17400
O 	O 	0.23131 0.69773 0.38713 -0.79600
O 	O 	0.21926 0.52549 0.41119 -0.41300
C 	C 	0.37971 0.80036 0.36461 0.32600
C 	C 	0.35125 0.58354 0.43563 0.34500
C 	C 	0.32954 0.82763 0.43874 0.33700
Zn	Zn	0.22020 0.71466 0.00323 1.22300
Zn	Zn	0.33776 0.78302 0.04659 1.19900
C 	C 	0.37946 0.61653 0.95366 0.34600
Zn	Zn	0.36582 0.73754 0.98601 1.22200
Zn	Zn	0.23922 0.62032 0.95630 1.18900
H 	H 	0.30952 0.65848 0.02868 0.18200
C 	C 	0.37296 0.88684 0.99285 0.36600
O 	O 	0.30802 0.70460 0.02043 -0.79500
O 	O 	0.25355 0.78265 0.06377 -0.47300
O 	O 	0.20369 0.79775 0.02205 -0.42000
O 	O 	0.22288 0.56197 0.99843 -0.41900
O 	O 	0.43194 0.82149 0.04165 -0.46900
H 	H 	0.26966 0.75611 0.95391 0.18000
O 	O 	0.45138 0.74335 0.00962 -0.40100
O 	O 	0.27444 0.72031 0.96840 -0.79500
O 	O 	0.31696 0.58157 0.95399 -0.45300
O 	O 	0.39529 0.84217 0.97813 -0.44100
O 	O 	0.39947 0.68540 0.95680 -0.45400
O 	O 	0.33036 0.86347 0.01436 -0.43000
C 	C 	0.21520 0.81107 0.04972 0.34300
C 	C 	0.46875 0.78468 0.03180 0.32700
Zn	Zn	0.98141 0.13968 0.19863 1.21900
Zn	Zn	0.87447 0.12254 0.25204 1.19600
C 	C 	0.81114 0.96708 0.14409 0.34400
Zn	Zn	0.85145 0.01527 0.20369 1.21700
Zn	Zn	0.94081 0.07014 0.14198 1.19000
H 	H 	0.85471 0.14458 0.19910 0.18400
C 	C 	0.91408 0.98363 0.25586 0.35200
O 	O 	0.88052 0.11844 0.20947 -0.79000
O 	O 	0.95138 0.20400 0.25847 -0.48700
O 	O 	0.98317 0.22681 0.17643 -0.44100
O 	O 	0.90878 0.16351 0.14654 -0.42500
O 	O 	0.79956 0.04581 0.26795 -0.46800
H 	H 	0.97045 0.01286 0.18790 0.16800
O 	O 	0.75930 0.00116 0.22468 -0.40800
O 	O 	0.94365 0.04455 0.18389 -0.79700
O 	O 	0.84901 0.02698 0.13283 -0.48200
O 	O 	0.87527 0.95669 0.23473 -0.43200
O 	O 	0.80177 0.95706 0.17253 -0.42500
O 	O 	0.93339 0.05222 0.25962 -0.44100
C 	C 	0.95065 0.22360 0.15272 0.34500
C 	C 	0.75130 0.00986 0.25258 0.30700
C 	C 	0.97803 0.27408 0.12954 -0.15300
C 	C 	0.76554 0.92256 0.12557 -0.12300
C 	C 	0.72622 0.88890 0.10937 0.06900
C 	C 	0.67807 0.85459 0.09028 -0.02200
C 	C 	0.63429 0.83017 0.07445 -0.02100
C 	C 	0.57972 0.80783 0.05723 0.06400
C 	C 	0.53027 0.79424 0.04430 -0.12200
C 	C 	0.43531 0.82965 0.34586 -0.11500
C 	C 	0.48203 0.85502 0.33016 0.06700
C 	C 	0.53704 0.88564 0.31209 -0.02200
C 	C 	0.58464 0.91270 0.29714 -0.01100
C 	C 	0.64136 0.94546 0.28045 0.05600
C 	C 	0.69090 0.97439 0.26711 -0.08900
C 	C 	0.93568 0.93790 0.27525 -0.12300
C 	C 	0.95531 0.90273 0.29246 0.08000
C 	C 	0.98061 0.86529 0.31331 -0.05300
C 	C 	0.44578 0.07867 0.44333 -0.14400
C 	C 	0.43031 0.01401 0.45616 -0.01200
C 	C 	0.38254 0.95391 0.44297 0.04300
C 	C 	0.36973 0.88802 0.45437 -0.16100
H 	H 	0.35935 0.96310 0.42314 0.03000
H 	H 	0.42251 0.08701 0.42344 0.06500
H 	H 	0.39483 0.87801 0.47343 0.08800
H 	H 	0.45186 0.00587 0.47658 0.04400
C 	C 	0.95463 0.48126 0.45762 -0.01300
C 	C 	0.89309 0.43262 0.46988 0.02200
C 	C 	0.83646 0.42939 0.45781 -0.15600
H 	H 	0.89375 0.40127 0.48958 0.02500
H 	H 	0.83536 0.46262 0.43878 0.08000
H 	H 	0.95427 0.51314 0.43805 0.04400
C 	C 	0.51361 0.48902 0.48057 -0.15900
C 	C 	0.48606 0.50603 0.45672 0.01300
C 	C 	0.43409 0.54029 0.45886 0.01300
C 	C 	0.40511 0.55260 0.43466 -0.15700
H 	H 	0.41849 0.55376 0.48000 0.03600
H 	H 	0.50350 0.50754 0.50168 0.08600
H 	H 	0.42277 0.54145 0.41355 0.08400
H 	H 	0.49943 0.49082 0.43547 0.03500
C 	C 	0.68949 0.09841 0.54881 -0.14600
C 	C 	0.69733 0.05905 0.56781 0.07400
C 	C 	0.71296 0.01757 0.59021 -0.07200
C 	C 	0.73317 0.98623 0.60868 0.02000
C 	C 	0.76580 0.95477 0.62857 0.04400
C 	C 	0.80179 0.93284 0.64302 -0.11000
C 	C 	0.42614 0.23315 0.54402 -0.11500
C 	C 	0.38095 0.21793 0.56117 0.06100
C 	C 	0.32799 0.19443 0.58112 -0.02100
C 	C 	0.28279 0.17014 0.59784 -0.02200
C 	C 	0.22985 0.13730 0.61688 0.06200
C 	C 	0.79154 0.51197 0.55863 -0.11800
C 	C 	0.82346 0.56134 0.57176 0.06400
C 	C 	0.86138 0.61730 0.58788 -0.02200
C 	C 	0.89265 0.66394 0.60253 -0.01900
C 	C 	0.92626 0.71754 0.62086 0.06300
C 	C 	0.95071 0.76270 0.63762 -0.11300
C 	C 	0.93080 0.54199 0.95843 -0.00800
C 	C 	0.89166 0.47890 0.96819 -0.14500
H 	H 	0.91206 0.57612 0.94453 0.04000
H 	H 	0.91092 0.44490 0.98189 0.07000
C 	C 	0.54752 0.09810 0.96356 -0.13700
C 	C 	0.48120 0.06296 0.96645 -0.02700
C 	C 	0.45948 0.98998 0.97328 0.04600
C 	C 	0.39383 0.95656 0.98618 -0.19500
H 	H 	0.49332 0.95901 0.97190 0.04100
H 	H 	0.58166 0.07042 0.97015 0.07000
H 	H 	0.36724 0.99057 0.99497 0.10000
H 	H 	0.44647 0.09216 0.96328 0.04800
C 	C 	0.49216 0.44532 0.96358 -0.15300
C 	C 	0.46565 0.47717 0.94328 0.01300
C 	C 	0.41492 0.51015 0.95144 0.01400
C 	C 	0.42501 0.58244 0.94555 -0.17500
H 	H 	0.37195 0.47904 0.96361 0.03800
H 	H 	0.47658 0.44405 0.98626 0.07600
H 	H 	0.47219 0.61441 0.93722 0.09100
H 	H 	0.48473 0.48369 0.92099 0.04400
C 	C 	0.97949 0.08413 0.77824 -0.13900
C 	C 	0.95586 0.11872 0.79365 0.06800
C 	C 	0.92517 0.15519 0.81226 -0.03000
C 	C 	0.89572 0.18234 0.82839 -0.02200
C 	C 	0.85696 0.20888 0.84724 0.05700
C 	C 	0.81984 0.22662 0.86298 -0.12100
C 	C 	0.44464 0.19291 0.86069 -0.12500
C 	C 	0.40157 0.17134 0.84417 0.06300
C 	C 	0.35249 0.14233 0.82464 -0.02500
C 	C 	0.31080 0.11466 0.80825 -0.02000
C 	C 	0.26138 0.07937 0.78989 0.06000
C 	C 	0.21769 0.04727 0.77533 -0.11200
C 	C 	0.72626 0.53998 0.87662 -0.11500
C 	C 	0.73765 0.58702 0.85829 0.06000
C 	C 	0.75695 0.64136 0.83652 -0.01900
C 	C 	0.77936 0.68670 0.81798 -0.02100
C 	C 	0.81321 0.73783 0.79677 0.06700
C 	C 	0.84910 0.77884 0.77964 -0.11600
