data_crystal

_cell_length_a 18.52964
_cell_length_b 18.83783
_cell_length_c 26.55537
_cell_angle_alpha 95.43491
_cell_angle_beta  95.43394
_cell_angle_gamma 126.40623

_symmetry_space_group_name_	'P 1'
_symmetry_space_group_name_H-M	'P 1'

loop_
_symmetry_equiv_pos_as_xyz
  x,y,z

loop_
_atom_site_label
_atom_site_type_symbol
_atom_site_fract_x
_atom_site_fract_y
_atom_site_fract_z
_atom_site_charge
C 	C 	0.95947 0.04598 0.00055 0.12900
N 	N 	0.91393 0.95955 0.00699 -0.13500
C 	C 	0.95616 0.92060 0.00740 0.14200
N 	N 	0.04465 0.96841 0.00240 -0.13200
C 	C 	0.09087 0.05472 0.99588 0.14600
N 	N 	0.04803 0.09352 0.99438 -0.12600
C 	C 	0.89325 0.98180 0.44635 0.14800
N 	N 	0.84983 0.89406 0.45064 -0.12900
C 	C 	0.89693 0.85937 0.45137 0.14600
N 	N 	0.98665 0.91251 0.44841 -0.14700
C 	C 	0.02983 0.99968 0.44473 0.16500
N 	N 	0.98322 0.03423 0.44365 -0.15000
Cu	Cu	0.62677 0.21653 0.01047 0.93100
Cu	Cu	0.69745 0.22614 0.90103 0.87900
Cu	Cu	0.68192 0.36327 0.94752 0.90000
Cu	Cu	0.64330 0.38786 0.05218 0.90100
C 	C 	0.65676 0.27673 0.11951 0.30300
O 	O 	0.49597 0.17113 0.01107 -0.34700
C 	C 	0.64850 0.30639 0.83370 0.30400
O 	O 	0.70822 0.35708 0.01816 -0.63900
O 	O 	0.61503 0.23081 0.93801 -0.63900
O 	O 	0.67878 0.14977 0.00293 -0.36200
O 	O 	0.78206 0.24763 0.95792 -0.43700
O 	O 	0.62085 0.31772 0.10842 -0.37100
O 	O 	0.75442 0.49264 0.96066 -0.38000
C 	C 	0.75798 0.54325 0.00039 0.31500
C 	C 	0.46695 0.21585 0.99520 0.31100
O 	O 	0.52611 0.29989 0.99110 -0.39200
O 	O 	0.70409 0.50869 0.03439 -0.37900
O 	O 	0.65799 0.22476 0.08308 -0.34400
C 	C 	0.75653 0.18675 0.98675 0.31700
O 	O 	0.67390 0.36998 0.87329 -0.37300
O 	O 	0.64112 0.23396 0.84019 -0.39700
H 	H 	0.77401 0.39274 0.03310 0.17000
H 	H 	0.55179 0.19556 0.91838 0.19300
Cu	Cu	0.74415 0.32964 0.44406 0.92900
Cu	Cu	0.73502 0.26407 0.55497 0.87500
Cu	Cu	0.59905 0.28468 0.50903 0.90100
Cu	Cu	0.57370 0.32176 0.40388 0.90000
C 	C 	0.67980 0.29900 0.33516 0.30300
O 	O 	0.79642 0.46090 0.44237 -0.34200
C 	C 	0.66024 0.31978 0.62272 0.30500
O 	O 	0.60182 0.25573 0.43806 -0.63700
O 	O 	0.73284 0.34542 0.51692 -0.64000
O 	O 	0.80394 0.26893 0.45066 -0.35700
O 	O 	0.70441 0.17533 0.49878 -0.43500
O 	O 	0.64167 0.33796 0.34655 -0.37300
O 	O 	0.46777 0.21782 0.49731 -0.37600
C 	C 	0.41698 0.21419 0.45714 0.31600
C 	C 	0.75335 0.49321 0.45699 0.30600
O 	O 	0.66889 0.43795 0.46346 -0.38700
O 	O 	0.45312 0.26848 0.42387 -0.38300
O 	O 	0.73165 0.29584 0.37124 -0.33900
C 	C 	0.76339 0.19360 0.46878 0.30700
O 	O 	0.59496 0.29521 0.58365 -0.37100
O 	O 	0.73252 0.32505 0.61538 -0.39900
H 	H 	0.56291 0.19061 0.42362 0.17000
H 	H 	0.77109 0.40838 0.53568 0.19100
C 	C 	0.71360 0.39836 0.76629 -0.03900
C 	C 	0.63940 0.32185 0.78080 -0.08300
C 	C 	0.56340 0.25409 0.74275 0.12400
C 	C 	0.56714 0.25803 0.69055 -0.03800
C 	C 	0.64608 0.32942 0.67595 -0.08300
C 	C 	0.71708 0.40258 0.71409 0.12500
Br	Br	0.81886 0.50889 0.69562 -0.22700
H 	H 	0.77073 0.45254 0.79545 0.06700
H 	H 	0.51057 0.20322 0.66139 0.06600
Br	Br	0.45397 0.15597 0.76135 -0.22800
C 	C 	0.75270 0.34135 0.20690 -0.03800
C 	C 	0.67219 0.26960 0.17357 -0.07800
C 	C 	0.60069 0.19966 0.19400 0.12900
C 	C 	0.60736 0.20582 0.24747 -0.03800
C 	C 	0.68467 0.28148 0.28086 -0.07600
C 	C 	0.75922 0.34773 0.26038 0.12900
Br	Br	0.86797 0.45058 0.30478 -0.21900
H 	H 	0.80846 0.39472 0.19136 0.05900
H 	H 	0.55032 0.15400 0.26302 0.06000
Br	Br	0.49095 0.09813 0.14957 -0.21700
C 	C 	0.85242 0.76512 0.45707 -0.03800
C 	C 	0.89697 0.74633 0.49306 -0.08500
C 	C 	0.86746 0.65810 0.49181 0.18600
C 	C 	0.79156 0.58732 0.45512 -0.10900
C 	C 	0.74539 0.60559 0.42006 -0.03700
C 	C 	0.77534 0.69392 0.42097 0.14300
H 	H 	0.95615 0.80060 0.52118 0.07500
O 	O 	0.91103 0.64099 0.52763 -0.28600
H 	H 	0.68619 0.55120 0.39200 0.05400
O 	O 	0.73219 0.71087 0.38476 -0.26900
H 	H 	0.68340 0.70640 0.40037 0.15700
H 	H 	0.96000 0.64614 0.51184 0.15700
C 	C 	0.79207 0.13502 0.46117 -0.11800
C 	C 	0.78889 0.08739 0.49978 -0.04300
C 	C 	0.81563 0.03179 0.49358 0.13500
C 	C 	0.84526 0.02246 0.44829 -0.04100
C 	C 	0.84504 0.06712 0.40880 -0.08700
C 	C 	0.81891 0.12338 0.41507 0.18500
H 	H 	0.76743 0.09486 0.53519 0.04500
O 	O 	0.81396 0.98766 0.53223 -0.26600
H 	H 	0.86756 0.06017 0.37371 0.07700
O 	O 	0.81654 0.16407 0.37541 -0.27500
H 	H 	0.87892 0.22150 0.38029 0.16400
H 	H 	0.87485 0.02970 0.55496 0.14300
C 	C 	0.31806 0.15952 0.45422 -0.11400
C 	C 	0.25943 0.09478 0.40994 -0.04200
C 	C 	0.16482 0.04326 0.40617 0.14300
C 	C 	0.12840 0.05813 0.44635 -0.04700
C 	C 	0.18699 0.12438 0.49009 -0.08400
C 	C 	0.28162 0.17439 0.49444 0.18800
H 	H 	0.28727 0.08393 0.37859 0.05600
O 	O 	0.10803 0.98022 0.36259 -0.26600
H 	H 	0.15911 0.13588 0.52118 0.07400
O 	O 	0.33837 0.24012 0.53704 -0.27900
H 	H 	0.34775 0.20954 0.56236 0.16200
H 	H 	0.09744 0.92407 0.36925 0.15800
C 	C 	0.81110 0.63980 0.00166 -0.11500
C 	C 	0.79458 0.67099 0.95954 -0.03800
C 	C 	0.83974 0.76286 0.96192 0.14300
C 	C 	0.90334 0.82426 0.00629 -0.04100
C 	C 	0.92064 0.79325 0.04821 -0.08700
C 	C 	0.87471 0.70124 0.04606 0.18500
H 	H 	0.74553 0.62383 0.92527 0.06800
O 	O 	0.82435 0.79288 0.92013 -0.27200
H 	H 	0.97005 0.84053 0.08234 0.07700
O 	O 	0.89102 0.67132 0.08760 -0.28700
H 	H 	0.94190 0.66930 0.08175 0.14800
H 	H 	0.77293 0.79440 0.92531 0.15200
C 	C 	0.90982 0.08452 0.99546 -0.02700
C 	C 	0.81934 0.03029 0.96825 -0.10000
C 	C 	0.76747 0.06185 0.96753 0.19100
C 	C 	0.80658 0.14929 0.99297 -0.12700
C 	C 	0.89731 0.20418 0.01962 -0.03200
C 	C 	0.94896 0.17210 0.02115 0.12300
H 	H 	0.78895 0.96321 0.94786 0.07900
O 	O 	0.67988 0.00864 0.93984 -0.30800
H 	H 	0.92792 0.27185 0.03906 0.05500
O 	O 	0.03593 0.22484 0.04962 -0.25500
H 	H 	0.07589 0.26101 0.02581 0.15000
H 	H 	0.64079 0.97376 0.96432 0.16600
C 	C 	0.18621 0.10442 0.98879 -0.03500
C 	C 	0.21015 0.06145 0.95599 -0.09100
C 	C 	0.30182 0.09726 0.95805 0.19200
C 	C 	0.37054 0.17813 0.99188 -0.11300
C 	C 	0.34708 0.22406 0.02231 -0.03600
C 	C 	0.25533 0.18758 0.02088 0.13900
H 	H 	0.15734 0.99832 0.93033 0.08400
O 	O 	0.32413 0.05430 0.92602 -0.28700
H 	H 	0.39998 0.28702 0.04809 0.05500
O 	O 	0.23332 0.23027 0.05338 -0.26400
H 	H 	0.23120 0.27148 0.03379 0.15100
H 	H 	0.32367 0.01153 0.94535 0.16100
