data_crystal

_cell_length_a 39.21174
_cell_length_b 38.01957
_cell_length_c 22.86260
_cell_angle_alpha 89.96280
_cell_angle_beta  89.94791
_cell_angle_gamma 87.40456

_symmetry_space_group_name_	'P 1'
_symmetry_space_group_name_H-M	'P 1'

loop_
_symmetry_equiv_pos_as_xyz
  x,y,z

loop_
_atom_site_label
_atom_site_type_symbol
_atom_site_fract_x
_atom_site_fract_y
_atom_site_fract_z
_atom_site_charge
C 	C 	0.44196 0.55198 0.00685 -0.03800
C 	C 	0.47312 0.56827 0.00660 -0.03900
C 	C 	0.44084 0.51499 0.00566 0.00700
C 	C 	0.47179 0.49428 0.00459 -0.00500
C 	C 	0.50345 0.51079 0.00605 -0.00600
C 	C 	0.50414 0.54805 0.00698 0.00700
C 	C 	0.47111 0.45705 0.00268 0.00600
C 	C 	0.50213 0.43682 0.00331 -0.03900
C 	C 	0.53439 0.49005 0.00598 0.00700
C 	C 	0.53598 0.56429 0.00837 -0.00700
C 	C 	0.56629 0.54349 0.01050 -0.04700
C 	C 	0.56590 0.50679 0.00760 -0.00700
C 	C 	0.40932 0.49818 0.00527 -0.00500
C 	C 	0.40893 0.46151 0.00099 -0.05400
C 	C 	0.43931 0.44079 0.00053 -0.00400
C 	C 	0.53837 0.60294 0.00402 0.00800
C 	C 	0.55194 0.61763 0.95320 -0.03900
C 	C 	0.56181 0.65247 0.95323 -0.03800
C 	C 	0.55788 0.67303 0.00389 0.00400
C 	C 	0.54143 0.65938 0.05295 -0.04000
C 	C 	0.53253 0.62416 0.05358 -0.04300
C 	C 	0.59882 0.48658 0.00264 0.00500
C 	C 	0.61419 0.47144 0.05262 -0.04000
C 	C 	0.64817 0.45867 0.05055 -0.04800
C 	C 	0.61704 0.48698 0.94983 -0.03700
C 	C 	0.65116 0.47483 0.94810 -0.04500
C 	C 	0.66734 0.46248 0.99925 0.01300
C 	C 	0.37648 0.51826 0.01289 0.00700
C 	C 	0.35921 0.51688 0.06655 -0.04200
C 	C 	0.32541 0.52985 0.07098 -0.04000
C 	C 	0.30865 0.54423 0.02177 0.00300
C 	C 	0.32678 0.54823 0.96941 -0.03700
C 	C 	0.36037 0.53459 0.96460 -0.03900
C 	C 	0.43720 0.40205 0.00040 0.00400
C 	C 	0.44303 0.38293 0.94858 -0.03600
C 	C 	0.43808 0.34674 0.94732 -0.04300
C 	C 	0.42605 0.32972 0.99721 0.01300
C 	C 	0.42080 0.34871 0.04925 -0.04800
C 	C 	0.42641 0.38472 0.05087 -0.03900
C 	C 	0.53327 0.45307 0.00444 -0.04000
H 	H 	0.55636 0.60151 0.91464 0.04100
H 	H 	0.57364 0.66309 0.91461 0.03900
H 	H 	0.53726 0.67548 0.09161 0.04300
H 	H 	0.52203 0.61310 0.09301 0.04200
H 	H 	0.31428 0.56028 0.93169 0.04300
H 	H 	0.37356 0.53588 0.92305 0.04200
H 	H 	0.31184 0.52751 0.11201 0.04100
H 	H 	0.37154 0.50448 0.10413 0.04200
H 	H 	0.45128 0.39613 0.90938 0.04100
H 	H 	0.44322 0.33202 0.90749 0.04300
H 	H 	0.42175 0.39931 0.09099 0.04000
H 	H 	0.41194 0.33564 0.08817 0.04200
H 	H 	0.60018 0.47068 0.09343 0.04100
H 	H 	0.66019 0.44788 0.08968 0.04500
H 	H 	0.60521 0.49822 0.91086 0.04000
H 	H 	0.66542 0.47643 0.90765 0.04100
H 	H 	0.41869 0.56840 0.00752 0.04200
H 	H 	0.47292 0.59673 0.00635 0.04300
H 	H 	0.59057 0.55608 0.01216 0.04000
H 	H 	0.55654 0.43664 0.00439 0.04200
H 	H 	0.50233 0.40835 0.00313 0.04200
H 	H 	0.38466 0.44889 0.99974 0.04700
Zn	Zn	0.37727 0.11858 0.01082 1.22100
C 	C 	0.31797 0.07669 0.01378 0.32000
O 	O 	0.40752 0.10489 0.07643 -0.46600
O 	O 	0.33567 0.05016 0.99024 -0.43900
O 	O 	0.38324 0.05268 0.09228 -0.46100
C 	C 	0.38997 0.07987 0.90544 0.35800
O 	O 	0.37142 0.10572 0.92901 -0.44700
O 	O 	0.40631 0.05662 0.93876 -0.49300
C 	C 	0.40122 0.07854 0.11128 0.34400
O 	O 	0.41817 0.15784 0.97745 -0.30000
Zn	Zn	0.38621 0.03946 0.01040 1.18200
O 	O 	0.33372 0.10187 0.04055 -0.44300
C 	C 	0.39786 0.18216 0.99979 0.28400
O 	O 	0.36984 0.17148 0.02221 -0.39700
C 	C 	0.52934 0.99714 0.56460 0.01700
C 	C 	0.50099 0.02203 0.56344 0.01700
C 	C 	0.55052 0.99295 0.51539 -0.05200
C 	C 	0.54399 0.01344 0.46512 0.01500
C 	C 	0.49375 0.04155 0.51244 -0.05300
C 	C 	0.51514 0.03749 0.46329 0.01700
H 	H 	0.47282 0.06115 0.51203 0.05800
H 	H 	0.57304 0.97540 0.51736 0.05700
C 	C 	0.51013 0.05910 0.41356 -0.01700
C 	C 	0.53251 0.05686 0.36558 0.01500
C 	C 	0.51710 0.06926 0.31256 -0.05700
C 	C 	0.48263 0.07994 0.31898 0.03100
S 	S 	0.47205 0.07358 0.38876 0.03100
H 	H 	0.52916 0.06651 0.27017 0.05300
C 	C 	0.56708 0.01262 0.41779 -0.01500
C 	C 	0.56130 0.03348 0.36785 0.01500
C 	C 	0.57902 0.02007 0.31763 -0.05700
C 	C 	0.59787 0.98858 0.32846 0.03300
S 	S 	0.59162 0.97760 0.39812 0.02600
H 	H 	0.57517 0.03044 0.27397 0.05400
C 	C 	0.51634 0.98364 0.66678 0.01500
C 	C 	0.53726 0.97970 0.61783 -0.01300
S 	S 	0.56210 0.94338 0.62687 0.01100
C 	C 	0.54804 0.93212 0.69355 0.03400
C 	C 	0.52217 0.95705 0.70953 -0.04800
C 	C 	0.48255 0.02844 0.61588 -0.01400
C 	C 	0.48875 0.00808 0.66579 0.01500
C 	C 	0.46164 0.00990 0.70677 -0.05000
C 	C 	0.43406 0.03202 0.68855 0.03500
S 	S 	0.44384 0.04811 0.62250 0.01500
H 	H 	0.46330 0.99838 0.75004 0.06200
H 	H 	0.51078 0.95803 0.75269 0.06400
Zn	Zn	0.63570 0.87399 0.01483 1.22000
C 	C 	0.69656 0.91329 0.00106 0.31800
O 	O 	0.61527 0.89226 0.08852 -0.43700
O 	O 	0.67707 0.93584 0.97111 -0.42000
O 	O 	0.63832 0.94601 0.08179 -0.49900
C 	C 	0.61220 0.90534 0.90781 0.36000
O 	O 	0.63427 0.88239 0.93058 -0.44500
O 	O 	0.60107 0.93254 0.93849 -0.49100
C 	C 	0.62440 0.92162 0.11308 0.34800
O 	O 	0.58737 0.84007 0.00193 -0.32300
Zn	Zn	0.62882 0.95188 0.99961 1.18100
O 	O 	0.68317 0.88667 0.02820 -0.43300
C 	C 	0.60794 0.81322 0.01324 0.28500
O 	O 	0.63900 0.82066 0.02601 -0.38100
Zn	Zn	0.10346 0.60614 0.00643 1.22400
C 	C 	0.05964 0.66840 0.98790 0.32600
O 	O 	0.08646 0.61441 0.08623 -0.44700
O 	O 	0.03553 0.65156 0.01459 -0.45700
O 	O 	0.04104 0.58017 0.07258 -0.49200
C 	C 	0.07148 0.58167 0.90138 0.34500
O 	O 	0.09529 0.57466 0.94056 -0.44200
O 	O 	0.04382 0.60006 0.91643 -0.49700
C 	C 	0.06205 0.59580 0.10771 0.35800
O 	O 	0.14201 0.56159 0.04239 -0.30200
Zn	Zn	0.02792 0.59963 0.99652 1.17500
O 	O 	0.08783 0.65117 0.97143 -0.44100
C 	C 	0.16520 0.58432 0.03336 0.28500
O 	O 	0.15417 0.61408 0.01163 -0.38600
C 	C 	0.97154 0.49208 0.46413 0.02100
C 	C 	0.99825 0.51607 0.46569 0.01900
C 	C 	0.97146 0.46399 0.50414 -0.05000
C 	C 	0.99683 0.46060 0.54755 0.01800
C 	C 	0.02442 0.51173 0.50733 -0.05000
C 	C 	0.02342 0.48470 0.54923 0.02000
H 	H 	0.04502 0.52978 0.50801 0.05700
H 	H 	0.95137 0.44538 0.50238 0.05700
C 	C 	0.04803 0.48165 0.59417 -0.01100
C 	C 	0.04581 0.45639 0.63881 0.01900
C 	C 	0.06241 0.46637 0.69146 -0.04200
C 	C 	0.07526 0.50013 0.68928 0.01900
S 	S 	0.06752 0.51582 0.62239 0.02300
H 	H 	0.06086 0.45192 0.73202 0.05700
C 	C 	0.99580 0.43415 0.59084 -0.01000
C 	C 	0.01919 0.43270 0.63748 0.01900
C 	C 	0.00602 0.41641 0.68859 -0.04500
C 	C 	0.97227 0.40647 0.68268 0.03600
S 	S 	0.95986 0.41732 0.61505 0.01400
H 	H 	0.01871 0.41628 0.73053 0.06500
C 	C 	0.94415 0.52632 0.38448 0.01700
C 	C 	0.94444 0.49813 0.42424 -0.01200
S 	S 	0.92170 0.46659 0.39482 0.02800
C 	C 	0.90907 0.48766 0.33401 0.01900
C 	C 	0.92366 0.52057 0.33421 -0.04400
C 	C 	0.99692 0.54515 0.42723 -0.01100
C 	C 	0.97066 0.55002 0.38597 0.01800
C 	C 	0.98008 0.57106 0.33743 -0.04800
C 	C 	0.01380 0.58155 0.34005 0.03400
S 	S 	0.03107 0.56455 0.40109 0.01800
H 	H 	0.96468 0.57460 0.29849 0.05700
H 	H 	0.92310 0.53749 0.29617 0.05300
Zn	Zn	0.87552 0.39408 0.00470 1.22000
C 	C 	0.81264 0.43438 0.98613 0.32700
O 	O 	0.87758 0.40098 0.91972 -0.45100
O 	O 	0.83082 0.45666 0.95687 -0.43400
O 	O 	0.90624 0.45139 0.92722 -0.48500
C 	C 	0.88220 0.44124 0.10214 0.35200
O 	O 	0.89511 0.41285 0.07619 -0.46800
O 	O 	0.86726 0.46653 0.07117 -0.48200
C 	C 	0.89751 0.42403 0.89666 0.35800
O 	O 	0.92497 0.35637 0.99968 -0.31900
Zn	Zn	0.87707 0.47183 0.98858 1.17700
O 	O 	0.82785 0.40967 0.01816 -0.43700
C 	C 	0.90413 0.33125 0.00785 0.28100
O 	O 	0.87219 0.34107 0.01175 -0.39400
C 	C 	0.94290 0.01685 0.00800 -0.04500
C 	C 	0.95762 0.04955 0.00924 -0.04200
C 	C 	0.96275 0.98609 0.99454 0.01400
C 	C 	0.99840 0.98828 0.98622 -0.00700
C 	C 	0.01344 0.02142 0.98858 -0.00600
C 	C 	0.99268 0.05239 0.99756 0.01100
C 	C 	0.01906 0.95737 0.97588 0.01000
C 	C 	0.05451 0.96003 0.96827 -0.04000
C 	C 	0.04927 0.02349 0.98298 0.00800
C 	C 	0.00766 0.08561 0.99603 -0.00300
C 	C 	0.04307 0.08738 0.99008 -0.04600
C 	C 	0.06408 0.05675 0.98645 -0.00900
C 	C 	0.94778 0.95295 0.99032 -0.01100
C 	C 	0.96839 0.92261 0.98033 -0.04300
C 	C 	0.00373 0.92436 0.97338 -0.01000
C 	C 	0.98678 0.11887 0.00087 0.00400
C 	C 	0.96541 0.13006 0.95460 -0.03700
C 	C 	0.94926 0.16360 0.95581 -0.03900
C 	C 	0.95587 0.18681 0.00171 0.00500
C 	C 	0.97574 0.17496 0.04936 -0.04300
C 	C 	0.99113 0.14113 0.04895 -0.04100
C 	C 	0.10139 0.05985 0.99201 0.02000
C 	C 	0.11540 0.06893 0.04608 -0.05200
C 	C 	0.15037 0.07378 0.05098 -0.03700
C 	C 	0.12254 0.05638 0.94260 -0.04800
C 	C 	0.15775 0.05983 0.94808 -0.03200
C 	C 	0.17181 0.06803 0.00253 -0.00000
C 	C 	0.91047 0.94947 0.99527 0.01800
C 	C 	0.89707 0.93100 0.04254 -0.04800
C 	C 	0.86248 0.92372 0.04372 -0.04300
C 	C 	0.84098 0.93492 0.99771 0.00900
C 	C 	0.85410 0.95451 0.95148 -0.03900
C 	C 	0.88885 0.96115 0.94967 -0.04500
C 	C 	0.02416 0.89110 0.96478 0.01700
C 	C 	0.01791 0.87004 0.91588 -0.04500
C 	C 	0.02827 0.83442 0.91606 -0.04000
C 	C 	0.04541 0.81983 0.96476 0.00900
C 	C 	0.05615 0.84202 0.00948 -0.04200
C 	C 	0.04457 0.87732 0.01054 -0.04900
C 	C 	0.06951 0.99242 0.97356 -0.03900
H 	H 	0.96180 0.11301 0.91737 0.04200
H 	H 	0.93295 0.17215 0.91982 0.04300
H 	H 	0.97998 0.19230 0.08597 0.04000
H 	H 	0.00732 0.13257 0.08511 0.03900
H 	H 	0.83750 0.96392 0.91642 0.04300
H 	H 	0.89904 0.97513 0.91272 0.04400
H 	H 	0.85241 0.90913 0.08009 0.04000
H 	H 	0.91362 0.92167 0.07773 0.04100
H 	H 	0.00283 0.88065 0.87974 0.04200
H 	H 	0.02107 0.81772 0.88016 0.03700
H 	H 	0.04995 0.89344 0.04818 0.04200
H 	H 	0.07084 0.83122 0.04593 0.04100
H 	H 	0.09910 0.07268 0.08406 0.04200
H 	H 	0.16081 0.08186 0.09241 0.03700
H 	H 	0.11178 0.05040 0.90033 0.04400
H 	H 	0.17409 0.05604 0.91016 0.04100
H 	H 	0.91605 0.01559 0.01833 0.04300
H 	H 	0.94169 0.07255 0.02044 0.04200
H 	H 	0.05449 0.11285 0.99016 0.04400
H 	H 	0.09693 0.99317 0.96943 0.04200
H 	H 	0.07071 0.93703 0.95820 0.04300
H 	H 	0.95679 0.89725 0.97802 0.04100
C 	C 	0.94159 0.22343 0.00050 -0.00000
C 	C 	0.95489 0.24899 0.96256 0.01800
C 	C 	0.94091 0.28360 0.96382 -0.00800
C 	C 	0.91574 0.29380 0.00480 -0.09400
C 	C 	0.90333 0.26848 0.04415 0.07300
C 	C 	0.91554 0.23331 0.04000 -0.08000
H 	H 	0.95036 0.30295 0.93366 0.05200
H 	H 	0.90536 0.21368 0.06884 0.05000
C 	C 	0.98502 0.24041 0.92231 -0.10200
C 	C 	0.87693 0.27836 0.09049 -0.11800
C 	C 	0.01815 0.25577 0.94475 -0.01400
H 	H 	0.01425 0.28450 0.95282 0.04200
H 	H 	0.03801 0.25231 0.91026 0.03600
C 	C 	0.84072 0.27277 0.06782 -0.01100
H 	H 	0.83700 0.24409 0.06308 0.02800
H 	H 	0.83708 0.28512 0.02412 0.04200
H 	H 	0.98947 0.21186 0.91421 0.05600
H 	H 	0.87948 0.30585 0.10573 0.06900
C 	C 	0.03141 0.23770 0.00049 -0.16800
C 	C 	0.81362 0.28846 0.10940 -0.16500
H 	H 	0.03499 0.20885 0.99358 0.06800
H 	H 	0.05643 0.24822 0.01243 0.06400
H 	H 	0.01341 0.24297 0.03729 0.06800
H 	H 	0.97921 0.25210 0.87864 0.06200
H 	H 	0.81654 0.27651 0.15357 0.06600
H 	H 	0.78783 0.28310 0.09249 0.06000
H 	H 	0.81579 0.31743 0.11269 0.07300
H 	H 	0.88150 0.26164 0.12993 0.05500
C 	C 	0.94849 0.40848 0.73267 0.00300
C 	C 	0.94816 0.38095 0.77385 0.13300
C 	C 	0.93004 0.38562 0.82630 -0.02000
C 	C 	0.91237 0.41774 0.83825 -0.12500
C 	C 	0.91109 0.44453 0.79562 0.21100
C 	C 	0.92933 0.43992 0.74341 -0.10000
H 	H 	0.93067 0.36470 0.85858 0.06700
H 	H 	0.92949 0.46126 0.71195 0.09600
Cl	Cl	0.97099 0.34075 0.76084 -0.32800
Cl	Cl	0.88627 0.48377 0.80658 -0.34900
C 	C 	0.90198 0.46905 0.27925 0.00300
C 	C 	0.92894 0.45664 0.24271 0.12900
C 	C 	0.92197 0.44535 0.18593 -0.02400
C 	C 	0.88838 0.44678 0.16481 -0.12900
C 	C 	0.86128 0.45687 0.20260 0.20500
C 	C 	0.86821 0.46793 0.25959 -0.10700
H 	H 	0.94285 0.43700 0.15732 0.06600
H 	H 	0.84737 0.47684 0.28788 0.08400
Cl	Cl	0.97169 0.45660 0.26654 -0.32000
Cl	Cl	0.81854 0.45563 0.17917 -0.33900
C 	C 	0.05565 0.70714 0.97984 -0.10600
C 	C 	0.07219 0.72497 0.93370 0.08200
C 	C 	0.07057 0.76197 0.93276 -0.08700
C 	C 	0.04916 0.78118 0.97134 0.01100
C 	C 	0.02941 0.76319 0.01267 0.00100
C 	C 	0.03420 0.72659 0.01842 -0.01000
H 	H 	0.08447 0.77583 0.89956 0.05200
H 	H 	0.02043 0.71308 0.05219 0.04300
C 	C 	0.08791 0.70543 0.88144 -0.12300
C 	C 	0.00086 0.78211 0.04687 -0.09500
C 	C 	0.06123 0.68752 0.84374 -0.01100
H 	H 	0.04692 0.66860 0.87009 0.04200
H 	H 	0.07480 0.67222 0.80868 0.04200
C 	C 	0.96828 0.78658 0.00985 -0.02800
H 	H 	0.95801 0.76030 0.00121 0.02900
H 	H 	0.97395 0.79888 0.96708 0.03600
H 	H 	0.10163 0.72387 0.85295 0.05700
H 	H 	0.00875 0.80801 0.06290 0.05200
C 	C 	0.03595 0.71407 0.81516 -0.16200
C 	C 	0.94095 0.80965 0.04081 -0.15700
H 	H 	0.04971 0.73368 0.78922 0.06400
H 	H 	0.01884 0.70002 0.78538 0.06500
H 	H 	0.01998 0.72794 0.84886 0.06300
H 	H 	0.10816 0.68600 0.89539 0.08000
H 	H 	0.93423 0.79787 0.08353 0.06000
H 	H 	0.91764 0.81188 0.01328 0.05300
H 	H 	0.95020 0.83650 0.04804 0.05800
H 	H 	0.99500 0.76684 0.08689 0.05100
C 	C 	0.07394 0.52339 0.74081 0.00300
C 	C 	0.04256 0.53250 0.76838 0.12900
C 	C 	0.04212 0.55184 0.82025 -0.02300
C 	C 	0.07259 0.56331 0.84442 -0.12700
C 	C 	0.10371 0.55639 0.81452 0.20600
C 	C 	0.10426 0.53598 0.76346 -0.10500
H 	H 	0.01801 0.55762 0.84222 0.05400
H 	H 	0.12829 0.53000 0.74134 0.08400
Cl	Cl	0.00344 0.52034 0.73800 -0.32800
Cl	Cl	0.14178 0.57480 0.83822 -0.33700
C 	C 	0.05736 0.59327 0.17126 -0.12700
C 	C 	0.05953 0.56028 0.19929 0.20700
C 	C 	0.04781 0.55707 0.25675 -0.10300
C 	C 	0.03389 0.58661 0.28660 0.00100
C 	C 	0.03440 0.62003 0.26026 0.13200
C 	C 	0.04627 0.62327 0.20282 -0.02300
H 	H 	0.04795 0.53132 0.27717 0.09500
H 	H 	0.04525 0.64885 0.18178 0.06500
Cl	Cl	0.07641 0.52268 0.16254 -0.32300
Cl	Cl	0.01887 0.65785 0.29791 -0.32500
C 	C 	0.73367 0.91745 0.00318 -0.10600
C 	C 	0.74816 0.94167 0.04206 0.08300
C 	C 	0.78328 0.94700 0.03925 -0.08900
C 	C 	0.80425 0.92797 0.99980 0.01400
C 	C 	0.79015 0.90223 0.96342 0.00500
C 	C 	0.75483 0.89751 0.96510 0.00600
H 	H 	0.79443 0.96573 0.06854 0.05400
H 	H 	0.74382 0.87810 0.93691 0.04400
C 	C 	0.72702 0.96060 0.08906 -0.12800
C 	C 	0.81275 0.87777 0.92620 -0.09600
C 	C 	0.72241 0.00040 0.07770 -0.01400
H 	H 	0.74767 0.01218 0.07263 0.03100
H 	H 	0.70978 0.01292 0.11648 0.03600
C 	C 	0.82695 0.84639 0.96238 -0.01900
H 	H 	0.80550 0.83074 0.97822 0.03500
H 	H 	0.84100 0.85585 0.00106 0.03000
H 	H 	0.70183 0.94921 0.09552 0.07100
H 	H 	0.83399 0.89204 0.90646 0.05300
C 	C 	0.70059 0.00914 0.02388 -0.15000
C 	C 	0.85123 0.82253 0.92631 -0.16000
H 	H 	0.67477 0.99873 0.02907 0.01500
H 	H 	0.69776 0.03816 0.01869 0.05400
H 	H 	0.71287 0.99800 0.98378 0.07300
H 	H 	0.74044 0.95681 0.13158 0.06400
H 	H 	0.83791 0.81237 0.88737 0.06200
H 	H 	0.86047 0.79980 0.95340 0.05700
H 	H 	0.87362 0.83720 0.91189 0.05900
H 	H 	0.79783 0.86778 0.88883 0.05300
C 	C 	0.57052 0.91514 0.73794 0.00100
C 	C 	0.55721 0.89080 0.77735 0.13200
C 	C 	0.57292 0.88494 0.83165 -0.02200
C 	C 	0.60234 0.90258 0.84626 -0.12600
C 	C 	0.61826 0.92293 0.80370 0.20500
C 	C 	0.60233 0.92919 0.74975 -0.10300
H 	H 	0.56103 0.86848 0.86378 0.05900
H 	H 	0.61341 0.94710 0.71895 0.08500
Cl	Cl	0.51969 0.86916 0.76058 -0.33100
Cl	Cl	0.65708 0.94262 0.81893 -0.34400
C 	C 	0.61818 0.92796 0.17562 -0.12300
C 	C 	0.58455 0.93174 0.19720 0.20000
C 	C 	0.57828 0.94871 0.25067 -0.10200
C 	C 	0.60528 0.96237 0.28243 -0.00100
C 	C 	0.63908 0.95513 0.26403 0.13400
C 	C 	0.64541 0.93777 0.21094 -0.02200
H 	H 	0.55222 0.95324 0.26572 0.08600
H 	H 	0.67143 0.93398 0.19533 0.06300
Cl	Cl	0.54979 0.91799 0.15559 -0.32800
Cl	Cl	0.67364 0.96970 0.30521 -0.32400
C 	C 	0.20906 0.07060 0.00874 0.00600
C 	C 	0.22987 0.04186 0.02967 0.00500
C 	C 	0.26532 0.04511 0.03302 -0.00100
C 	C 	0.28039 0.07610 0.01516 -0.11000
C 	C 	0.25956 0.10472 0.99360 0.08500
C 	C 	0.22401 0.10174 0.99144 -0.08100
H 	H 	0.28142 0.02292 0.04781 0.03500
H 	H 	0.20798 0.12341 0.97453 0.05200
C 	C 	0.21509 0.00662 0.04466 -0.09700
C 	C 	0.27492 0.13723 0.96781 -0.12700
C 	C 	0.21961 0.99675 0.10954 -0.02100
H 	H 	0.24693 0.99701 0.12228 0.03400
H 	H 	0.21138 0.96940 0.11581 0.03000
C 	C 	0.28668 0.13068 0.90451 -0.01300
H 	H 	0.26412 0.12611 0.87656 0.03400
H 	H 	0.30411 0.10688 0.90203 0.04600
H 	H 	0.18776 0.00517 0.03281 0.05200
H 	H 	0.29627 0.14602 0.99508 0.06700
C 	C 	0.19851 0.02101 0.15023 -0.15900
C 	C 	0.30523 0.16202 0.88027 -0.16400
H 	H 	0.17098 0.02036 0.13917 0.06200
H 	H 	0.20200 0.01195 0.19610 0.06300
H 	H 	0.20699 0.04842 0.14709 0.06600
H 	H 	0.22871 0.98597 0.01799 0.04900
H 	H 	0.28799 0.18603 0.88019 0.06400
H 	H 	0.31355 0.15634 0.83468 0.07600
H 	H 	0.32817 0.16695 0.90702 0.07500
H 	H 	0.25563 0.15962 0.96816 0.05700
C 	C 	0.39123 0.07570 0.84172 -0.12700
C 	C 	0.41302 0.09596 0.80792 0.20400
C 	C 	0.42362 0.08398 0.75265 -0.10300
C 	C 	0.41263 0.05180 0.73114 0.00000
C 	C 	0.38681 0.03466 0.76111 0.13200
C 	C 	0.37627 0.04660 0.81637 -0.02300
H 	H 	0.44260 0.09809 0.72876 0.08500
H 	H 	0.35824 0.03181 0.84128 0.05700
Cl	Cl	0.42916 0.13497 0.83600 -0.32800
Cl	Cl	0.36953 0.99651 0.73191 -0.31800
C 	C 	0.45786 0.07751 0.27082 0.00100
C 	C 	0.43531 0.10620 0.25723 0.13200
C 	C 	0.41498 0.10517 0.20702 -0.02100
C 	C 	0.41771 0.07618 0.16908 -0.12600
C 	C 	0.43919 0.04680 0.18409 0.20700
C 	C 	0.45852 0.04733 0.23540 -0.10400
H 	H 	0.39766 0.12731 0.19672 0.06000
H 	H 	0.47515 0.02476 0.24653 0.08600
Cl	Cl	0.43338 0.14425 0.30124 -0.33100
Cl	Cl	0.44409 0.01015 0.13714 -0.37200
C 	C 	0.40575 0.21971 0.99858 -0.08500
C 	C 	0.43667 0.23167 0.02201 0.07700
C 	C 	0.44354 0.26751 0.01775 -0.08400
C 	C 	0.41911 0.29189 0.99529 0.01000
C 	C 	0.38735 0.28026 0.97538 0.00800
C 	C 	0.38148 0.24411 0.97546 -0.00800
H 	H 	0.46739 0.27670 0.03469 0.05300
H 	H 	0.35767 0.23499 0.95820 0.04100
C 	C 	0.46085 0.20763 0.05739 -0.12700
C 	C 	0.35949 0.30599 0.95366 -0.09500
C 	C 	0.45515 0.21198 0.12356 -0.00500
H 	H 	0.45706 0.24005 0.13628 0.03200
H 	H 	0.47571 0.19658 0.14689 0.03700
C 	C 	0.36069 0.30951 0.88685 -0.02400
H 	H 	0.35596 0.28367 0.86636 0.03700
H 	H 	0.38626 0.31763 0.87271 0.03600
H 	H 	0.45964 0.17951 0.04548 0.07700
H 	H 	0.36127 0.33225 0.97443 0.05200
C 	C 	0.42075 0.19895 0.14360 -0.17200
C 	C 	0.33385 0.33672 0.86489 -0.15800
H 	H 	0.41748 0.17167 0.12804 0.08000
H 	H 	0.41957 0.19909 0.19211 0.08600
H 	H 	0.39952 0.21643 0.12677 0.07600
H 	H 	0.48752 0.21446 0.04742 0.06000
H 	H 	0.30786 0.32901 0.87749 0.06000
H 	H 	0.33519 0.33842 0.81646 0.06200
H 	H 	0.33855 0.36307 0.88343 0.05900
H 	H 	0.33418 0.29643 0.96672 0.04900
C 	C 	0.20185 0.57378 0.03309 -0.08400
C 	C 	0.22648 0.59524 0.05870 0.07600
C 	C 	0.26128 0.58508 0.05411 -0.08100
C 	C 	0.27185 0.55417 0.02470 0.00800
C 	C 	0.24722 0.53228 0.00053 0.00800
C 	C 	0.21245 0.54230 0.00516 -0.01000
H 	H 	0.28020 0.60099 0.07455 0.05200
H 	H 	0.19355 0.52564 0.98647 0.06000
C 	C 	0.21616 0.62752 0.09500 -0.12300
C 	C 	0.25748 0.49712 0.97279 -0.08700
C 	C 	0.22780 0.66193 0.06745 -0.00200
H 	H 	0.25566 0.66004 0.05827 0.02700
H 	H 	0.22330 0.68361 0.09952 0.02800
C 	C 	0.26073 0.46792 0.01909 -0.03500
H 	H 	0.23542 0.46436 0.03969 0.04100
H 	H 	0.27884 0.47522 0.05388 0.03800
H 	H 	0.18838 0.62994 0.10430 0.07100
H 	H 	0.28170 0.49863 0.94799 0.05200
C 	C 	0.20862 0.67175 0.01123 -0.17800
C 	C 	0.27353 0.43300 0.99222 -0.14600
H 	H 	0.18098 0.67645 0.02042 0.08200
H 	H 	0.21859 0.69636 0.99308 0.07100
H 	H 	0.21229 0.65065 0.97794 0.09000
H 	H 	0.22856 0.62453 0.13856 0.05800
H 	H 	0.25572 0.42465 0.95767 0.06000
H 	H 	0.27516 0.41239 0.02665 0.05500
H 	H 	0.29935 0.43555 0.97301 0.05700
H 	H 	0.23795 0.49004 0.94007 0.05400
C 	C 	0.70456 0.45460 0.99938 0.01000
C 	C 	0.72747 0.47854 0.02346 0.00800
C 	C 	0.76274 0.47099 0.01926 -0.00200
C 	C 	0.77551 0.44067 0.99052 -0.09900
C 	C 	0.75272 0.41679 0.96648 0.08300
C 	C 	0.71739 0.42378 0.97193 -0.08200
H 	H 	0.78036 0.48892 0.03841 0.04000
H 	H 	0.69982 0.40542 0.95391 0.05300
C 	C 	0.71497 0.51223 0.05401 -0.09800
C 	C 	0.76560 0.38349 0.93563 -0.12300
C 	C 	0.72151 0.54528 0.01768 -0.02300
H 	H 	0.74864 0.54526 0.00358 0.03000
H 	H 	0.71666 0.56877 0.04586 0.02600
C 	C 	0.76702 0.35205 0.97785 -0.00800
H 	H 	0.74104 0.34781 0.99526 0.03200
H 	H 	0.78404 0.35737 0.01536 0.04200
H 	H 	0.68768 0.51244 0.06655 0.05200
H 	H 	0.79109 0.38674 0.91558 0.06700
C 	C 	0.69839 0.54878 0.96407 -0.15500
C 	C 	0.78026 0.31844 0.94732 -0.16600
H 	H 	0.67112 0.54846 0.97720 0.06100
H 	H 	0.70266 0.57414 0.94171 0.05700
H 	H 	0.70442 0.52708 0.93274 0.06500
H 	H 	0.72906 0.51420 0.09598 0.05700
H 	H 	0.76417 0.31279 0.90877 0.06500
H 	H 	0.77932 0.29591 0.97810 0.06200
H 	H 	0.80710 0.32109 0.93294 0.07200
H 	H 	0.74813 0.37788 0.89878 0.05700
C 	C 	0.59767 0.77647 0.00566 -0.09400
C 	C 	0.57233 0.76770 0.96452 0.08200
C 	C 	0.55699 0.73513 0.96996 -0.07600
C 	C 	0.57166 0.70861 0.00576 0.00300
C 	C 	0.60092 0.71555 0.03953 0.00900
C 	C 	0.61257 0.74994 0.04129 -0.00900
H 	H 	0.53472 0.72968 0.94423 0.05300
H 	H 	0.63360 0.75589 0.06985 0.04800
C 	C 	0.56196 0.79280 0.91484 -0.12500
C 	C 	0.62206 0.68601 0.06843 -0.09500
C 	C 	0.55436 0.77473 0.85591 -0.00800
H 	H 	0.56551 0.74734 0.85425 0.03200
H 	H 	0.56668 0.78928 0.81996 0.04300
C 	C 	0.64702 0.66846 0.02440 -0.02800
H 	H 	0.66534 0.68798 0.00911 0.03500
H 	H 	0.63294 0.65902 0.98574 0.03800
H 	H 	0.53987 0.80997 0.92948 0.07600
H 	H 	0.60559 0.66614 0.08791 0.05200
C 	C 	0.51614 0.77477 0.84253 -0.17000
C 	C 	0.66699 0.63716 0.05151 -0.15600
H 	H 	0.50556 0.80223 0.83800 0.09000
H 	H 	0.51208 0.76071 0.80073 0.07400
H 	H 	0.50207 0.76148 0.87768 0.06800
H 	H 	0.58322 0.81034 0.90561 0.07200
H 	H 	0.68140 0.64560 0.09048 0.06000
H 	H 	0.68543 0.62592 0.01892 0.05400
H 	H 	0.64939 0.61641 0.06444 0.05800
H 	H 	0.63682 0.69665 0.10547 0.05100
