data_crystal

_cell_length_a 25.35170
_cell_length_b 25.67181
_cell_length_c 31.88706
_cell_angle_alpha 95.55148
_cell_angle_beta  95.55383
_cell_angle_gamma 125.64464

_symmetry_space_group_name_	'P 1'
_symmetry_space_group_name_H-M	'P 1'

loop_
_symmetry_equiv_pos_as_xyz
  x,y,z

loop_
_atom_site_label
_atom_site_type_symbol
_atom_site_fract_x
_atom_site_fract_y
_atom_site_fract_z
_atom_site_charge
C 	C 	0.00953 0.05360 0.00161 0.12700
N 	N 	0.07649 0.00473 0.02386 -0.13400
C 	C 	0.11024 0.06939 0.02288 0.12400
N 	N 	0.07664 0.09366 0.01151 -0.13400
C 	C 	0.17130 0.02924 0.44590 0.00800
C 	C 	0.23498 0.04663 0.45808 -0.05700
C 	C 	0.28646 0.09801 0.44184 0.01600
C 	C 	0.27413 0.13224 0.41559 -0.00000
C 	C 	0.21279 0.12133 0.40924 -0.05700
C 	C 	0.16083 0.06841 0.42406 0.02300
S 	S 	0.11060 0.98942 0.47315 -0.00800
C 	C 	0.06941 0.01921 0.45836 -0.01500
C 	C 	0.10301 0.06209 0.43063 -0.04800
S 	S 	0.34571 0.20372 0.41646 0.02000
C 	C 	0.39404 0.19393 0.44888 -0.07200
C 	C 	0.35433 0.13236 0.46002 -0.02300
H 	H 	0.24480 0.02385 0.48138 0.04800
H 	H 	0.20689 0.15522 0.39582 0.04700
H 	H 	0.08635 0.08746 0.41562 0.04700
H 	H 	0.37313 0.11372 0.48107 0.04300
H 	H 	0.04002 0.87502 0.99338 0.04400
C 	C 	0.39920 0.17959 0.05197 0.00000
C 	C 	0.33676 0.13202 0.06021 -0.05700
C 	C 	0.28952 0.14424 0.05694 0.02500
C 	C 	0.30368 0.20066 0.04282 -0.00100
C 	C 	0.36265 0.24299 0.02836 -0.05100
C 	C 	0.41161 0.23314 0.03457 0.01100
S 	S 	0.23225 0.18798 0.02548 0.01100
C 	C 	0.18235 0.11386 0.03767 -0.01900
C 	C 	0.22102 0.09515 0.05400 -0.04700
H 	H 	0.32434 0.08585 0.06680 0.04900
H 	H 	0.36884 0.27991 0.01102 0.04800
H 	H 	0.20068 0.04608 0.05889 0.05100
S 	S 	0.45237 0.16584 0.03884 0.03700
C 	C 	0.00944 0.96458 0.01396 0.10700
C 	C 	0.46574 0.23147 0.45155 0.28700
C 	C 	0.46606 0.26099 0.01303 -0.00700
S 	S 	0.00395 0.14856 0.97118 -0.01000
H 	H 	0.48342 0.30307 0.99811 0.03000
O 	O 	0.49363 0.27246 0.42490 -0.39100
C 	C 	0.49402 0.22719 0.01233 -0.08200
O 	O 	0.50144 0.23148 0.48463 -0.37900
H 	H 	0.51772 0.25601 0.71621 0.06400
H 	H 	0.53727 0.26040 0.63625 0.05200
H 	H 	0.54017 0.18574 0.20060 0.06500
H 	H 	0.55746 0.21855 0.28508 0.04900
C 	C 	0.56008 0.30695 0.72280 -0.08900
C 	C 	0.56280 0.25673 0.00816 0.28900
C 	C 	0.57158 0.31256 0.64831 -0.05700
Cu	Cu	0.58041 0.30738 0.40714 0.89400
H 	H 	0.58068 0.21903 0.43099 0.16300
C 	C 	0.58653 0.19225 0.20783 -0.09100
O 	O 	0.58412 0.22088 0.00757 -0.35900
C 	C 	0.58459 0.34111 0.68928 0.00800
O 	O 	0.58952 0.29516 0.55903 -0.38100
O 	O 	0.58820 0.30436 0.79764 -0.19500
C 	C 	0.59697 0.21339 0.28519 -0.06600
Cu	Cu	0.59707 0.28827 0.49813 0.89800
C 	C 	0.59545 0.33865 0.76479 0.11500
O 	O 	0.60328 0.31899 0.00664 -0.38100
O 	O 	0.60503 0.26648 0.44141 -0.64100
O 	O 	0.61116 0.21525 0.13691 -0.19600
C 	C 	0.61367 0.19792 0.25000 0.01400
H 	H 	0.61398 0.25396 0.93080 0.17200
C 	C 	0.62368 0.20081 0.17585 0.12000
C 	C 	0.62649 0.35482 0.63147 0.04000
C 	C 	0.99855 0.98468 0.45757 0.12000
N 	N 	0.97608 0.98923 0.00325 -0.13300
C 	C 	0.90798 0.98722 0.46226 0.11400
N 	N 	0.86637 0.92100 0.45189 -0.13600
C 	C 	0.89066 0.88662 0.44375 0.12300
N 	N 	0.95684 0.91857 0.44699 -0.13800
N 	N 	0.97400 0.01898 0.46461 -0.13300
Cu	Cu	0.67589 0.25479 0.99878 0.92400
Cu	Cu	0.70372 0.25897 0.90002 0.87100
Cu	Cu	0.71867 0.37062 0.95523 0.89600
Cu	Cu	0.70060 0.38289 0.04824 0.89500
C 	C 	0.69055 0.27799 0.08943 0.25700
C 	C 	0.67265 0.33603 0.86198 0.25400
O 	O 	0.73788 0.35727 0.01072 -0.63500
O 	O 	0.66071 0.27289 0.94197 -0.64400
O 	O 	0.70420 0.19923 0.98236 -0.37300
O 	O 	0.76982 0.26337 0.93800 -0.43600
O 	O 	0.70700 0.33793 0.09457 -0.36500
O 	O 	0.77942 0.46440 0.97171 -0.38800
C 	C 	0.78010 0.49842 0.00587 0.29800
O 	O 	0.73673 0.46975 0.03131 -0.39000
O 	O 	0.70317 0.25439 0.05647 -0.34700
C 	C 	0.75358 0.21920 0.96204 0.28700
O 	O 	0.71391 0.38290 0.89540 -0.38200
O 	O 	0.66035 0.27817 0.85856 -0.39500
H 	H 	0.78546 0.37838 0.02073 0.16900
Cu	Cu	0.70885 0.32492 0.44929 0.92800
Cu	Cu	0.71066 0.29927 0.54855 0.87200
C 	C 	0.65798 0.27904 0.35877 0.25100
O 	O 	0.74229 0.41532 0.43960 -0.35700
C 	C 	0.63918 0.33367 0.59180 0.25500
O 	O 	0.69602 0.34267 0.50776 -0.64000
O 	O 	0.76405 0.29497 0.46383 -0.36700
O 	O 	0.70065 0.23197 0.50934 -0.43700
O 	O 	0.62763 0.30693 0.36060 -0.37300
C 	C 	0.70961 0.43927 0.44697 0.28400
O 	O 	0.64769 0.40027 0.45118 -0.38700
O 	O 	0.70413 0.29349 0.39096 -0.33500
C 	C 	0.74348 0.24610 0.48411 0.28800
O 	O 	0.69702 0.34505 0.59186 -0.39600
H 	H 	0.71758 0.38930 0.51929 0.17400
C 	C 	0.64697 0.39974 0.69619 0.11600
C 	C 	0.68397 0.42983 0.73798 -0.08900
C 	C 	0.65452 0.40050 0.77212 0.00800
O 	O 	0.67678 0.41170 0.66041 -0.19400
C 	C 	0.64832 0.35163 0.82529 0.03900
C 	C 	0.68817 0.40880 0.81042 -0.05700
H 	H 	0.73539 0.47182 0.74337 0.06400
H 	H 	0.74147 0.44243 0.82023 0.05300
C 	C 	0.67884 0.22110 0.26129 0.11400
C 	C 	0.71772 0.23457 0.22968 -0.08400
C 	C 	0.68709 0.21900 0.18664 0.00900
O 	O 	0.70657 0.25108 0.30416 -0.18300
C 	C 	0.65230 0.24478 0.31706 0.04600
C 	C 	0.67303 0.24390 0.12561 0.04900
C 	C 	0.71872 0.24689 0.15496 -0.05300
H 	H 	0.77059 0.26001 0.23853 0.06800
H 	H 	0.77185 0.28174 0.15836 0.05600
C 	C 	0.78292 0.60323 0.40790 -0.00100
C 	C 	0.82874 0.66525 0.39917 -0.05700
C 	C 	0.81537 0.71102 0.40521 0.02500
C 	C 	0.75988 0.69577 0.42240 0.00100
C 	C 	0.72021 0.63733 0.43737 -0.05500
C 	C 	0.73106 0.59001 0.42856 0.01600
S 	S 	0.79882 0.55073 0.41722 0.03100
C 	C 	0.74026 0.50832 0.44604 -0.07800
C 	C 	0.70628 0.53598 0.44951 -0.02300
S 	S 	0.77252 0.76550 0.44195 0.00700
C 	C 	0.84513 0.81601 0.42710 -0.01900
C 	C 	0.86361 0.77889 0.40796 -0.04700
H 	H 	0.87450 0.67840 0.39000 0.04900
H 	H 	0.68470 0.63032 0.45693 0.04700
H 	H 	0.66518 0.51769 0.46616 0.04300
H 	H 	0.91251 0.79992 0.40101 0.05100
C 	C 	0.83026 0.07178 0.50470 0.00600
C 	C 	0.78159 0.08099 0.50890 -0.05600
C 	C 	0.79689 0.14227 0.50545 0.01400
C 	C 	0.85802 0.19124 0.49573 -0.00200
C 	C 	0.90241 0.17858 0.48540 -0.05600
C 	C 	0.88880 0.11869 0.49116 0.02400
S 	S 	0.81505 0.99935 0.49094 -0.00400
C 	C 	0.88127 0.02448 0.46863 -0.00800
C 	C 	0.91829 0.09223 0.47166 -0.04900
S 	S 	0.85027 0.24474 0.47634 0.02600
C 	C 	0.77144 0.20973 0.48047 -0.07800
C 	C 	0.74852 0.15342 0.49776 -0.02400
H 	H 	0.73240 0.04085 0.51208 0.04700
H 	H 	0.94375 0.21230 0.47093 0.04900
H 	H 	0.96300 0.12084 0.45871 0.05200
H 	H 	0.69869 0.12106 0.50360 0.03900
C 	C 	0.88828 0.67477 0.98303 0.01800
C 	C 	0.94363 0.73811 0.98260 -0.07300
C 	C 	0.93668 0.78857 0.98830 0.03900
C 	C 	0.87702 0.77567 0.99646 -0.03100
C 	C 	0.82608 0.71455 0.00408 -0.01500
C 	C 	0.83165 0.66342 0.99606 -0.02100
S 	S 	0.89055 0.61315 0.99135 0.00700
C 	C 	0.82041 0.56969 0.01057 -0.07100
C 	C 	0.79302 0.60400 0.01115 0.00200
S 	S 	0.89214 0.84608 0.01709 0.02100
C 	C 	0.97301 0.89491 0.01569 -0.00400
C 	C 	0.99065 0.85583 0.99856 -0.06100
H 	H 	0.99093 0.74818 0.97998 0.05000
H 	H 	0.78540 0.70785 0.01764 0.03900
H 	H 	0.74632 0.58604 0.02088 0.03900
C 	C 	0.93242 0.13427 0.95151 0.00800
C 	C 	0.92437 0.18301 0.94643 -0.05800
C 	C 	0.86088 0.16703 0.94468 0.01400
C 	C 	0.80819 0.10479 0.95025 -0.00200
C 	C 	0.81861 0.05962 0.96128 -0.05600
C 	C 	0.88112 0.07431 0.96088 0.02000
C 	C 	0.97302 0.08031 0.99116 -0.01800
C 	C 	0.90396 0.04333 0.98245 -0.04100
S 	S 	0.75048 0.11030 0.96547 0.01900
C 	C 	0.78832 0.18941 0.96461 -0.08000
C 	C 	0.84885 0.21441 0.95166 -0.02300
H 	H 	0.96661 0.23256 0.94665 0.04700
H 	H 	0.78087 0.01673 0.97261 0.04700
H 	H 	0.87161 0.99746 0.99291 0.04300
H 	H 	0.88408 0.26514 0.94943 0.03800
