data_crystal

_cell_length_a 20.65912
_cell_length_b 21.21789
_cell_length_c 40.41861
_cell_angle_alpha 60.77705
_cell_angle_beta  118.93137
_cell_angle_gamma 133.29854

_symmetry_space_group_name_	'P 1'
_symmetry_space_group_name_H-M	'P 1'

loop_
_symmetry_equiv_pos_as_xyz
  x,y,z

loop_
_atom_site_label
_atom_site_type_symbol
_atom_site_fract_x
_atom_site_fract_y
_atom_site_fract_z
_atom_site_charge
Co	Co	0.04295 0.02340 0.03562 1.17300
Co	Co	0.07957 0.89230 0.04069 1.17700
O 	O 	0.04297 0.12446 0.02943 -0.46500
O 	O 	0.00786 0.95113 0.18795 -0.38200
O 	O 	0.10055 0.85713 0.13685 -0.37600
O 	O 	0.06254 0.14940 0.15580 -0.40000
O 	O 	0.02808 0.92457 0.05900 -0.74500
Co	Co	0.00631 0.07077 0.57788 1.17400
Co	Co	0.09979 0.03093 0.54947 1.17200
Co	Co	0.13539 0.90372 0.54843 1.17700
O 	O 	0.08602 0.12313 0.54301 -0.46400
O 	O 	0.01329 0.93165 0.69391 -0.37900
O 	O 	0.12974 0.80181 0.59742 -0.40100
O 	O 	0.07968 0.92930 0.56782 -0.74300
C 	C 	0.06639 0.04630 0.82180 -0.08400
H 	H 	0.12041 0.11300 0.80969 0.05600
C 	C 	0.11528 0.06508 0.34885 0.00200
C 	C 	0.08862 0.03927 0.31577 -0.10000
C 	C 	0.01832 0.95435 0.25053 -0.13300
H 	H 	0.08918 0.97751 0.26292 0.09200
H 	H 	0.11331 0.44537 0.62148 0.05000
C 	C 	0.10537 0.70536 0.14059 0.00500
H 	H 	0.03365 0.67604 0.13406 0.04800
C 	C 	0.06338 0.59759 0.11339 0.08800
N 	N 	0.00890 0.54357 0.09577 -0.11600
N 	N 	0.03793 0.29673 0.51844 -0.11200
C 	C 	0.05425 0.19809 0.61260 0.30500
C 	C 	0.08390 0.01275 0.47565 0.33700
O 	O 	0.09078 0.17161 0.60763 -0.39100
O 	O 	0.04896 0.02301 0.49124 -0.40200
C 	C 	0.06370 0.00574 0.37739 -0.06200
C 	C 	0.10192 0.02829 0.41537 0.04400
C 	C 	0.04993 0.01254 0.43363 -0.20700
C 	C 	0.07663 0.32435 0.62002 0.02000
H 	H 	0.08487 0.32913 0.06648 0.04300
N 	N 	0.07167 0.50665 0.03143 -0.11200
C 	C 	0.13120 0.66520 0.13529 -0.03600
H 	H 	0.09668 0.08139 0.87187 0.05100
C 	C 	0.01071 0.95303 0.31106 0.06700
Co	Co	0.02657 0.85221 0.60452 1.18600
C 	C 	0.11062 0.27628 0.62895 -0.08200
O 	O 	0.11189 0.19295 0.10307 -0.38800
H 	H 	0.00992 0.89361 0.76819 0.07000
C 	C 	0.10230 0.47189 0.05894 0.09500
C 	C 	0.05153 0.02891 0.85672 -0.06600
C 	C 	0.11078 0.21262 0.12944 0.29900
H 	H 	0.12707 0.08724 0.29337 0.05700
C 	C 	0.01571 0.00289 0.76153 -0.08900
H 	H 	0.02387 0.06463 0.74214 0.05800
C 	C 	0.01088 0.97848 0.80221 0.09200
C 	C 	0.01113 0.95181 0.74828 -0.07500
C 	C 	0.12487 0.35345 0.09273 0.01200
C 	C 	0.13339 0.40146 0.63306 -0.05600
C 	C 	0.00081 0.97101 0.70582 0.31900
O 	O 	0.00174 0.81265 0.52553 -0.38700
H 	H 	0.12191 0.66244 0.69441 0.04900
O 	O 	0.99842 0.95256 0.58573 -0.56500
Co	Co	0.99704 0.09186 0.07383 1.18200
O 	O 	0.13818 0.84623 0.64130 -0.37700
C 	C 	0.98642 0.91929 0.37288 0.03300
C 	C 	0.97851 0.95779 0.20805 0.32700
N 	N 	0.98222 0.35203 0.97540 -0.10500
C 	C 	0.15182 0.85726 0.12583 0.29500
O 	O 	0.16604 0.02251 0.01238 -0.42800
C 	C 	0.16099 0.81190 0.63257 0.30000
O 	O 	0.14911 0.00246 0.49717 -0.43400
C 	C 	0.96380 0.26240 0.51822 0.08400
O 	O 	0.96616 0.15167 0.60500 -0.41200
O 	O 	0.98893 0.00739 0.97798 -0.39500
O 	O 	0.99284 0.03639 0.68152 -0.41500
C 	C 	0.97989 0.28434 0.60697 0.07700
C 	C 	0.98006 0.94356 0.87237 0.05300
H 	H 	0.17639 0.13120 0.35235 0.03600
C 	C 	0.98189 0.95324 0.96623 0.33300
H 	H 	0.98374 0.03366 0.90436 0.05700
C 	C 	0.97240 0.92012 0.91237 -0.01300
H 	H 	0.96086 0.85719 0.93200 0.04700
H 	H 	0.94767 0.87154 0.39518 0.03600
N 	N 	0.41675 0.00189 0.63687 -0.13600
C 	C 	0.96020 0.89323 0.34000 -0.06900
O 	O 	0.91448 0.97012 0.19004 -0.39100
O 	O 	0.17730 0.91007 0.09277 -0.37700
C 	C 	0.96891 0.93184 0.27241 -0.00000
H 	H 	0.89578 0.90000 0.26083 0.05500
C 	C 	0.36673 0.92480 0.64446 0.12000
C 	C 	0.68441 0.28495 0.00771 0.02900
C 	C 	0.58954 0.24325 0.99782 -0.06000
C 	C 	0.55819 0.28520 0.99733 0.03400
C 	C 	0.61960 0.37415 0.99889 -0.06300
C 	C 	0.71320 0.41438 0.01087 0.03100
C 	C 	0.74617 0.37002 0.01543 -0.06700
H 	H 	0.54074 0.17738 0.99230 0.05600
H 	H 	0.59447 0.40770 0.99654 0.05900
H 	H 	0.81896 0.40055 0.02561 0.06100
C 	C 	0.73024 0.28096 0.51286 0.03300
C 	C 	0.65123 0.23012 0.52651 -0.06400
C 	C 	0.62343 0.27310 0.52802 0.03300
C 	C 	0.67910 0.36549 0.52083 -0.06800
C 	C 	0.76468 0.41570 0.51423 0.03400
C 	C 	0.78809 0.37530 0.50722 -0.06600
H 	H 	0.61248 0.15808 0.53642 0.05500
H 	H 	0.65861 0.39808 0.52333 0.05900
H 	H 	0.84960 0.41695 0.49723 0.05500
C 	C 	0.25925 0.67018 0.13619 0.03200
C 	C 	0.34068 0.73440 0.12281 -0.06900
C 	C 	0.37260 0.70768 0.11216 0.03500
C 	C 	0.31685 0.62059 0.10879 -0.06800
C 	C 	0.23925 0.55521 0.12397 0.03300
C 	C 	0.21290 0.57901 0.13972 -0.06600
H 	H 	0.38065 0.80411 0.12200 0.06200
H 	H 	0.33967 0.60136 0.09854 0.06000
H 	H 	0.15791 0.52740 0.15481 0.05700
C 	C 	0.31810 0.63685 0.68155 0.03300
C 	C 	0.25218 0.54934 0.67548 -0.06500
C 	C 	0.27942 0.50748 0.67195 0.03300
C 	C 	0.36958 0.55561 0.67108 -0.06600
C 	C 	0.43473 0.64117 0.67682 0.03300
C 	C 	0.41087 0.67999 0.68453 -0.06700
H 	H 	0.18041 0.51578 0.67189 0.05500
H 	H 	0.38833 0.52820 0.66353 0.06000
H 	H 	0.46339 0.74522 0.69080 0.05700
Co	Co	0.98648 0.85880 0.09964 1.18700
Co	Co	0.92632 0.92158 0.13342 1.19500
C 	C 	0.91223 0.71878 0.06464 0.30600
Co	Co	0.92303 0.06608 0.13817 1.16100
C 	C 	0.21701 0.08873 0.02841 0.31400
O 	O 	0.94629 0.02198 0.11157 -0.78900
O 	O 	0.92746 0.82087 0.14027 -0.45500
O 	O 	0.95723 0.95983 0.07707 -0.56400
C 	C 	0.74640 0.89095 0.12099 0.29400
O 	O 	0.78662 0.97596 0.11672 -0.37000
O 	O 	0.79318 0.85662 0.13598 -0.36800
O 	O 	0.97770 0.88148 0.99083 -0.39200
C 	C 	0.88432 0.15239 0.05397 0.30000
O 	O 	0.92758 0.16715 0.08884 -0.40700
O 	O 	0.89979 0.11845 0.04103 -0.38600
O 	O 	0.99774 0.75935 0.06701 -0.41000
O 	O 	0.88977 0.74590 0.07788 -0.38100
O 	O 	0.18284 0.09364 0.04670 -0.40700
Co	Co	0.94986 0.90094 0.63893 1.18500
C 	C 	0.94735 0.74041 0.54859 0.29300
Co	Co	0.89102 0.01868 0.63092 1.16000
C 	C 	0.28796 0.08223 0.56316 0.26300
O 	O 	0.94871 0.99216 0.61316 -0.73000
O 	O 	0.96950 0.81139 0.64692 -0.45000
C 	C 	0.76658 0.82200 0.64482 0.31200
O 	O 	0.81199 0.88775 0.66001 -0.40000
O 	O 	0.80899 0.81281 0.63331 -0.37900
C 	C 	0.83271 0.06500 0.54518 0.28800
O 	O 	0.80099 0.00412 0.57667 -0.39600
O 	O 	0.89831 0.08009 0.53693 -0.37200
O 	O 	0.93671 0.74479 0.57758 -0.36500
O 	O 	0.26171 0.99953 0.57458 -0.35100
O 	O 	0.24214 0.10201 0.56585 -0.38500
C 	C 	0.93998 0.89290 0.81807 -0.05300
C 	C 	0.92512 0.87550 0.85299 -0.03600
C 	C 	0.97763 0.97327 0.92452 -0.09100
H 	H 	0.89484 0.84043 0.80291 0.05700
H 	H 	0.87102 0.80884 0.86509 0.05200
H 	H 	0.89921 0.82700 0.33659 0.06000
H 	H 	0.17383 0.05626 0.42916 0.02900
H 	H 	0.98068 0.99307 0.41860 0.12300
C 	C 	0.18911 0.29261 0.65909 0.01000
C 	C 	0.23458 0.35787 0.67847 -0.04000
C 	C 	0.21166 0.41823 0.66307 0.01600
H 	H 	0.21084 0.25059 0.66932 0.04200
C 	C 	0.30154 0.36022 0.71485 0.08600
N 	N 	0.90240 0.25211 0.59755 -0.11900
N 	N 	0.35520 0.36214 0.74398 -0.11600
C 	C 	0.52432 0.69342 0.66907 0.01500
C 	C 	0.58411 0.66994 0.69584 -0.05700
C 	C 	0.65463 0.69477 0.68463 0.03000
C 	C 	0.67171 0.75116 0.64758 -0.08500
C 	C 	0.60666 0.76659 0.61966 0.01000
C 	C 	0.53609 0.74226 0.63065 -0.03700
H 	H 	0.57250 0.62813 0.72476 0.05700
H 	H 	0.61750 0.80716 0.59054 0.04600
C 	C 	0.47530 0.76690 0.60225 0.09100
C 	C 	0.71409 0.66817 0.71240 0.07600
N 	N 	0.42657 0.78660 0.57955 -0.11200
N 	N 	0.76181 0.64694 0.73465 -0.10600
C 	C 	0.28922 0.68901 0.67856 0.01300
C 	C 	0.33419 0.78020 0.65899 -0.04500
C 	C 	0.30612 0.82880 0.65446 0.00500
C 	C 	0.22160 0.78389 0.66165 -0.06600
C 	C 	0.18184 0.69571 0.68493 0.00700
C 	C 	0.21747 0.64914 0.69477 -0.03300
H 	H 	0.39135 0.81376 0.64745 0.05300
C 	C 	0.18529 0.56487 0.72363 0.08900
N 	N 	0.15948 0.49733 0.74679 -0.11300
C 	C 	0.19294 0.46099 0.12721 0.01500
C 	C 	0.22348 0.41381 0.16105 -0.06000
C 	C 	0.20632 0.33774 0.16076 0.02500
C 	C 	0.15480 0.30583 0.12666 -0.08800
C 	C 	0.14043 0.42845 0.09330 -0.03900
H 	H 	0.26537 0.43950 0.18698 0.05300
C 	C 	0.24283 0.29324 0.19548 0.07400
N 	N 	0.27198 0.25754 0.22329 -0.11100
C 	C 	0.64767 0.83010 0.11800 -0.07500
C 	C 	0.58997 0.84112 0.08191 0.01000
C 	C 	0.50222 0.80834 0.07994 -0.03500
C 	C 	0.47056 0.76189 0.11427 0.01600
C 	C 	0.52765 0.74957 0.15024 -0.05500
C 	C 	0.61493 0.78163 0.15219 0.02500
H 	H 	0.61540 0.87962 0.05560 0.04300
H 	H 	0.50248 0.71179 0.17660 0.05400
C 	C 	0.67182 0.76704 0.18965 0.08200
C 	C 	0.44559 0.82389 0.04267 0.09600
N 	N 	0.71738 0.75536 0.21964 -0.10600
N 	N 	0.40020 0.83636 0.01282 -0.10800
C 	C 	0.22486 0.69910 0.14737 0.01400
C 	C 	0.28828 0.77036 0.16577 -0.05500
C 	C 	0.26307 0.81886 0.16429 0.02700
C 	C 	0.17167 0.79027 0.14809 -0.07900
H 	H 	0.35850 0.79194 0.17867 0.05500
C 	C 	0.33185 0.89972 0.17783 0.08500
N 	N 	0.38701 0.96460 0.18865 -0.09600
C 	C 	0.75464 0.23464 0.50687 0.01800
C 	C 	0.84684 0.27270 0.51209 -0.05000
C 	C 	0.87130 0.21991 0.51779 0.02600
C 	C 	0.80508 0.12658 0.52237 -0.07800
C 	C 	0.71235 0.09163 0.51155 0.00800
C 	C 	0.68702 0.14734 0.50056 -0.04000
H 	H 	0.90020 0.34155 0.51369 0.05300
H 	H 	0.66007 0.02163 0.51129 0.03600
C 	C 	0.59516 0.11919 0.47836 0.08600
N 	N 	0.52150 0.09647 0.46055 -0.11500
C 	C 	0.83296 0.50660 0.52057 0.01300
C 	C 	0.87599 0.51465 0.55927 -0.05600
C 	C 	0.90260 0.58502 0.56964 0.02100
C 	C 	0.89460 0.65340 0.54051 -0.07600
C 	C 	0.85716 0.64826 0.50140 0.00800
C 	C 	0.82872 0.57675 0.49130 -0.03800
H 	H 	0.87993 0.46102 0.58194 0.05300
H 	H 	0.85291 0.70165 0.47865 0.04600
C 	C 	0.79196 0.57405 0.45083 0.09000
C 	C 	0.93351 0.58387 0.61035 0.08100
N 	N 	0.76249 0.57186 0.41840 -0.11200
N 	N 	0.95765 0.58246 0.64302 -0.11000
C 	C 	0.53563 0.22201 0.53716 0.01100
C 	C 	0.53647 0.21768 0.57316 -0.05400
C 	C 	0.45721 0.18695 0.57965 0.02500
C 	C 	0.37462 0.15357 0.55119 -0.07100
C 	C 	0.37587 0.16599 0.51407 -0.00400
C 	C 	0.45516 0.19811 0.50713 -0.03400
H 	H 	0.59978 0.24156 0.59549 0.05300
H 	H 	0.31347 0.14542 0.49123 0.04200
C 	C 	0.45397 0.20811 0.46886 0.08800
C 	C 	0.46096 0.18965 0.61559 0.08300
N 	N 	0.45300 0.21624 0.43819 -0.11100
N 	N 	0.46394 0.19179 0.64439 -0.10900
C 	C 	0.81541 0.17086 0.03026 -0.08100
C 	C 	0.73504 0.11712 0.04278 0.00000
C 	C 	0.69046 0.15232 0.03557 -0.03600
C 	C 	0.71975 0.23920 0.01117 0.00700
C 	C 	0.79092 0.28688 0.99326 -0.04200
C 	C 	0.84029 0.25420 0.00348 0.01300
H 	H 	0.71231 0.05072 0.06142 0.03400
H 	H 	0.81129 0.35177 0.97314 0.05500
C 	C 	0.91904 0.30849 0.98787 0.08500
C 	C 	0.61983 0.10138 0.05571 0.08000
N 	N 	0.56320 0.06009 0.07190 -0.12200
C 	C 	0.77364 0.49514 0.02503 0.01000
C 	C 	0.78987 0.48499 0.06468 -0.05100
C 	C 	0.82262 0.55478 0.07753 0.02600
C 	C 	0.84321 0.63716 0.05085 -0.08000
C 	C 	0.82305 0.64580 0.01104 -0.00700
C 	C 	0.79197 0.57681 0.99824 -0.02400
H 	H 	0.77279 0.42115 0.08520 0.05900
H 	H 	0.83797 0.70886 0.99033 0.05000
C 	C 	0.77886 0.59017 0.95746 0.08600
C 	C 	0.83562 0.54166 0.11825 0.07600
N 	N 	0.76839 0.60091 0.92480 -0.11400
N 	N 	0.84605 0.53115 0.15088 -0.10600
C 	C 	0.30945 0.16097 0.02221 -0.09600
C 	C 	0.38245 0.16302 0.05267 0.01200
C 	C 	0.46147 0.19716 0.04460 -0.03900
C 	C 	0.46883 0.23206 0.00554 0.00800
C 	C 	0.39893 0.23685 0.97536 -0.05600
C 	C 	0.32089 0.20426 0.98363 0.03400
H 	H 	0.37483 0.13162 0.08250 0.03900
H 	H 	0.40668 0.26856 0.94555 0.05300
C 	C 	0.25010 0.21094 0.95208 0.07100
C 	C 	0.53597 0.19865 0.07659 0.09000
N 	N 	0.19331 0.21614 0.92683 -0.11100
N 	N 	0.59575 0.20009 0.10218 -0.11500
