data_crystal

_cell_length_a 13.92549
_cell_length_b 19.17012
_cell_length_c 45.89418
_cell_angle_alpha 90.54215
_cell_angle_beta  90.53463
_cell_angle_gamma 119.31635

_symmetry_space_group_name_	'P 1'
_symmetry_space_group_name_H-M	'P 1'

loop_
_symmetry_equiv_pos_as_xyz
  x,y,z

loop_
_atom_site_label
_atom_site_type_symbol
_atom_site_fract_x
_atom_site_fract_y
_atom_site_fract_z
_atom_site_charge
C 	C 	0.53074 0.96079 0.95304 0.26800
C 	C 	0.56797 0.21158 0.87499 0.32300
C 	C 	0.68802 0.18486 0.96403 0.31100
C 	C 	0.41621 0.97920 0.86583 0.28000
C 	C 	0.40236 0.20362 0.94856 0.30200
C 	C 	0.22244 0.96854 0.94251 0.28700
Ni	Ni	0.59808 0.08933 0.90802 1.11800
Ni	Ni	0.36479 0.08961 0.90017 1.12600
Ni	Ni	0.44767 0.07539 0.96447 1.12300
O 	O 	0.56854 0.98068 0.92611 -0.36100
O 	O 	0.53164 0.01464 0.97154 -0.36100
O 	O 	0.40349 0.19554 0.91994 -0.37000
O 	O 	0.63566 0.20266 0.89286 -0.36000
O 	O 	0.47176 0.15066 0.86858 -0.35500
O 	O 	0.29812 0.97529 0.96198 -0.38600
O 	O 	0.70230 0.14165 0.94394 -0.36000
O 	O 	0.59140 0.17972 0.96784 -0.39100
O 	O 	0.23621 0.03006 0.92677 -0.35500
O 	O 	0.52055 0.03649 0.86826 -0.32700
O 	O 	0.33457 0.98986 0.87610 -0.36300
O 	O 	0.37175 0.14153 0.96543 -0.37200
O 	O 	0.46177 0.06862 0.92352 -0.70900
H 	H 	0.42197 0.00995 0.92167 0.15300
C 	C 	0.51609 0.24194 0.71351 0.30800
C 	C 	0.26944 0.97846 0.63011 0.31000
C 	C 	0.32091 0.01280 0.72905 0.32900
C 	C 	0.48274 0.17381 0.61926 0.28300
C 	C 	0.54841 0.95278 0.68974 0.30700
C 	C 	0.72064 0.17512 0.66333 0.27900
Ni	Ni	0.35386 0.10805 0.67421 1.11600
Ni	Ni	0.50733 0.03884 0.64290 1.12600
Ni	Ni	0.55561 0.10180 0.70963 1.12900
O 	O 	0.44806 0.22366 0.69093 -0.37600
O 	O 	0.52300 0.18516 0.72792 -0.34200
O 	O 	0.49471 0.94507 0.66519 -0.36700
O 	O 	0.24409 0.99934 0.65499 -0.37700
O 	O 	0.35025 0.96171 0.62926 -0.37000
O 	O 	0.69546 0.18514 0.69048 -0.34600
O 	O 	0.30653 0.06885 0.71658 -0.35100
O 	O 	0.41608 0.01286 0.72759 -0.33900
O 	O 	0.67245 0.10325 0.65052 -0.37000
O 	O 	0.38796 0.15281 0.63210 -0.37400
O 	O 	0.51464 0.12031 0.61349 -0.37600
O 	O 	0.60939 0.02346 0.70191 -0.35800
O 	O 	0.47633 0.09161 0.67422 -0.69700
H 	H 	0.52569 0.14658 0.66829 0.12200
C 	C 	0.94694 0.80134 0.79634 0.32200
C 	C 	0.88873 0.77896 0.86943 0.31000
Ni	Ni	0.53919 0.61742 0.80728 1.11900
Ni	Ni	0.75075 0.79954 0.82175 1.12100
Ni	Ni	0.78870 0.64767 0.82554 1.12800
O 	O 	0.50985 0.51849 0.83294 -0.34100
O 	O 	0.86815 0.81959 0.79286 -0.36800
O 	O 	0.52475 0.69059 0.77706 -0.36600
O 	O 	0.84102 0.70163 0.86434 -0.35700
O 	O 	0.59459 0.57687 0.77298 -0.34900
O 	O 	0.85338 0.82485 0.85697 -0.38100
O 	O 	0.47638 0.66901 0.83656 -0.33200
O 	O 	0.92586 0.73016 0.80548 -0.35500
C 	C 	0.62303 0.86140 0.49321 0.29000
C 	C 	0.65793 0.96508 0.37214 0.30200
C 	C 	0.70098 0.06799 0.45904 0.30100
C 	C 	0.56320 0.75585 0.40326 0.30000
C 	C 	0.40652 0.98387 0.41797 0.28200
C 	C 	0.30015 0.76638 0.45005 0.28800
Ni	Ni	0.68830 0.92051 0.43178 1.11000
Ni	Ni	0.44631 0.85279 0.40094 1.12400
Ni	Ni	0.48727 0.92537 0.46647 1.11400
O 	O 	0.70376 0.91306 0.47675 -0.37100
O 	O 	0.52631 0.85993 0.49402 -0.38000
O 	O 	0.36005 0.91017 0.40771 -0.36200
O 	O 	0.70145 0.92975 0.38704 -0.36400
O 	O 	0.55515 0.94826 0.37672 -0.36300
O 	O 	0.32863 0.83772 0.46153 -0.37700
O 	O 	0.73225 0.04202 0.43624 -0.35600
O 	O 	0.63631 0.01706 0.47821 -0.36800
O 	O 	0.32838 0.75851 0.42299 -0.35300
O 	O 	0.64223 0.80041 0.42275 -0.35200
O 	O 	0.51731 0.78792 0.38642 -0.35000
O 	O 	0.46158 0.00333 0.44296 -0.36400
O 	O 	0.53686 0.88527 0.43517 -0.71900
H 	H 	0.51348 0.83187 0.44303 0.15300
C 	C 	0.58914 0.99918 0.23712 0.26000
C 	C 	0.44555 0.80725 0.13230 0.29800
C 	C 	0.54779 0.78378 0.22137 0.32600
C 	C 	0.42261 0.97802 0.14859 0.26800
C 	C 	0.72220 0.86595 0.14511 0.29100
C 	C 	0.83070 0.09397 0.16905 0.30100
Ni	Ni	0.45199 0.87471 0.19131 1.11000
Ni	Ni	0.63078 0.97350 0.13811 1.11300
Ni	Ni	0.71383 0.94196 0.20062 1.11700
O 	O 	0.50318 0.92671 0.23291 -0.34300
O 	O 	0.69000 0.01551 0.22890 -0.32500
O 	O 	0.73805 0.93266 0.13284 -0.38400
O 	O 	0.38461 0.81334 0.15265 -0.38000
O 	O 	0.51494 0.87139 0.11817 -0.38800
O 	O 	0.83644 0.03212 0.17915 -0.36500
O 	O 	0.47112 0.77728 0.20300 -0.37900
O 	O 	0.62645 0.85456 0.22941 -0.36000
O 	O 	0.75419 0.08384 0.14956 -0.35400
O 	O 	0.40947 0.95811 0.17638 -0.36500
O 	O 	0.52281 0.01690 0.13750 -0.33900
O 	O 	0.72080 0.86006 0.17386 -0.35900
O 	O 	0.59625 0.94077 0.17782 -0.70900
H 	H 	0.60396 0.99282 0.18353 0.13700
C 	C 	0.43077 0.21862 0.26338 0.30700
C 	C 	0.41502 0.46039 0.34284 0.30700
C 	C 	0.38375 0.20297 0.33840 0.30700
C 	C 	0.42436 0.48738 0.27748 0.29600
C 	C 	0.05724 0.19810 0.32647 0.29600
C 	C 	0.11448 0.25130 0.25134 0.30500
Ni	Ni	0.46095 0.35497 0.30303 1.11700
O 	O 	0.49362 0.29587 0.26919 -0.33800
O 	O 	0.32372 0.18809 0.25900 -0.34900
O 	O 	0.47053 0.42225 0.33959 -0.35200
O 	O 	0.30696 0.42145 0.33936 -0.35500
O 	O 	0.46518 0.27469 0.33243 -0.34500
O 	O 	0.31384 0.15777 0.31785 -0.37600
O 	O 	0.48669 0.45229 0.27719 -0.34600
O 	O 	0.31579 0.44415 0.27640 -0.36000
O 	O 	0.30687 0.30193 0.29551 -0.70800
H 	H 	0.31442 0.31276 0.27442 0.14000
C 	C 	0.56100 0.60292 0.24867 -0.03100
C 	C 	0.47325 0.57168 0.26825 -0.06200
C 	C 	0.42214 0.61747 0.27554 0.12400
C 	C 	0.44704 0.68656 0.26002 -0.02200
C 	C 	0.52844 0.71413 0.23879 -0.08100
C 	C 	0.59098 0.67519 0.23465 0.12900
Br	Br	0.72092 0.72154 0.21151 -0.22300
H 	H 	0.60479 0.57058 0.24394 0.08800
H 	H 	0.40375 0.71933 0.26471 0.07500
Br	Br	0.32277 0.58938 0.30757 -0.22400
C 	C 	0.97739 0.25901 0.21803 -0.01500
C 	C 	0.06890 0.24735 0.22181 -0.08900
C 	C 	0.10232 0.21768 0.19808 0.12900
C 	C 	0.03024 0.18225 0.17427 -0.04800
C 	C 	0.92442 0.17401 0.17498 -0.06100
C 	C 	0.90852 0.22583 0.19349 0.11300
Br	Br	0.80281 0.25818 0.18371 -0.20200
H 	H 	0.95764 0.29078 0.23445 0.08000
H 	H 	0.05015 0.15145 0.15748 0.07700
Br	Br	0.24564 0.22715 0.19748 -0.20100
C 	C 	0.47915 0.11527 0.27857 -0.03700
C 	C 	0.48250 0.16857 0.25737 -0.06800
C 	C 	0.52961 0.17030 0.23020 0.13700
C 	C 	0.57216 0.11855 0.22454 -0.03900
C 	C 	0.56839 0.06498 0.24580 -0.05300
C 	C 	0.52107 0.06354 0.27293 0.14200
Br	Br	0.50486 0.98716 0.30185 -0.21800
H 	H 	0.44112 0.11213 0.29923 0.08600
H 	H 	0.60078 0.11594 0.20293 0.08100
Br	Br	0.52886 0.23814 0.19982 -0.16800
C 	C 	0.78571 0.10907 0.36645 -0.03400
C 	C 	0.73099 0.03244 0.35366 -0.05600
C 	C 	0.77417 0.01740 0.32821 0.14800
C 	C 	0.87579 0.07612 0.31769 -0.03700
C 	C 	0.93852 0.14838 0.33326 -0.06100
C 	C 	0.89056 0.16608 0.35727 0.13100
Br	Br	0.96926 0.26304 0.38009 -0.19100
H 	H 	0.75389 0.12069 0.38604 0.07200
H 	H 	0.90966 0.06316 0.29854 0.07700
Br	Br	0.70262 0.91341 0.30973 -0.20300
C 	C 	0.41248 0.53670 0.38691 -0.02900
C 	C 	0.46539 0.53378 0.36144 -0.06600
C 	C 	0.56776 0.60048 0.35445 0.12600
C 	C 	0.60668 0.67230 0.37039 -0.02600
C 	C 	0.54815 0.67705 0.39431 -0.07100
C 	C 	0.45612 0.60697 0.40390 0.12700
Br	Br	0.39433 0.60460 0.44105 -0.24200
H 	H 	0.33856 0.48400 0.39382 0.08300
H 	H 	0.68012 0.72530 0.36342 0.08200
Br	Br	0.65807 0.59459 0.32428 -0.21600
C 	C 	0.30884 0.11386 0.38081 -0.04100
C 	C 	0.39935 0.16089 0.36317 -0.07400
C 	C 	0.49471 0.15265 0.36534 0.12600
C 	C 	0.49445 0.09370 0.38294 -0.04000
C 	C 	0.40414 0.04642 0.40023 -0.06700
C 	C 	0.31043 0.05621 0.39909 0.13600
Br	Br	0.18173 0.98852 0.42096 -0.25900
H 	H 	0.23508 0.11931 0.37921 0.07600
H 	H 	0.56423 0.08376 0.38277 0.07600
Br	Br	0.62604 0.21942 0.34406 -0.20500
C 	C 	0.72374 0.15161 0.46142 -0.07700
C 	C 	0.67819 0.17951 0.44022 0.02300
C 	C 	0.61177 0.21194 0.44887 -0.05500
C 	C 	0.59720 0.22005 0.47873 0.02800
C 	C 	0.67311 0.21746 0.49858 -0.06000
C 	C 	0.73918 0.18513 0.48957 0.01800
C 	C 	0.48774 0.20413 0.48930 0.00900
C 	C 	0.39224 0.13578 0.47904 -0.03500
C 	C 	0.30166 0.09657 0.49723 -0.02700
C 	C 	0.30796 0.12408 0.52604 -0.00400
C 	C 	0.39262 0.20145 0.53363 -0.03000
C 	C 	0.48110 0.24223 0.51483 -0.03800
C 	C 	0.24897 0.06561 0.54931 0.05900
C 	C 	0.20717 0.08744 0.57340 -0.07700
C 	C 	0.19115 0.04699 0.59977 0.05300
C 	C 	0.22211 0.98758 0.60230 -0.11500
C 	C 	0.23908 0.95468 0.57673 0.03500
C 	C 	0.25461 0.99438 0.55039 -0.09300
H 	H 	0.68359 0.16814 0.41754 0.04600
H 	H 	0.56277 0.22208 0.43275 0.06100
H 	H 	0.67125 0.23083 0.52145 0.04500
H 	H 	0.78632 0.17315 0.50570 0.03900
H 	H 	0.39229 0.10866 0.45833 0.06500
H 	H 	0.23248 0.04003 0.49016 0.06000
H 	H 	0.39493 0.22681 0.55498 0.04500
H 	H 	0.54901 0.29965 0.52134 0.04100
H 	H 	0.19535 0.13917 0.57240 0.05600
H 	H 	0.16730 0.06812 0.61887 0.02700
H 	H 	0.25313 0.90395 0.57786 0.03300
H 	H 	0.28111 0.97400 0.53159 0.04900
C 	C 	0.23655 0.69518 0.46789 -0.06900
C 	C 	0.12092 0.65454 0.46663 0.02600
C 	C 	0.06043 0.59825 0.48791 -0.07200
C 	C 	0.11540 0.58261 0.51061 0.03700
C 	C 	0.23082 0.62126 0.51117 -0.05900
C 	C 	0.29080 0.67759 0.49009 0.02100
C 	C 	0.05275 0.52786 0.53437 -0.01300
C 	C 	0.93593 0.39265 0.55139 -0.04600
C 	C 	0.84854 0.37511 0.62653 -0.05100
C 	C 	0.79257 0.31578 0.64716 0.01600
C 	C 	0.79923 0.24498 0.64658 -0.06800
H 	H 	0.07798 0.66853 0.44987 0.04400
H 	H 	0.27416 0.60868 0.52825 0.05200
H 	H 	0.37971 0.70791 0.49107 0.04500
H 	H 	0.88311 0.32955 0.54655 0.04300
H 	H 	0.83926 0.42800 0.62652 0.05400
H 	H 	0.73833 0.32258 0.66226 0.04900
C 	C 	0.54781 0.25595 0.60885 -0.08900
C 	C 	0.54221 0.31849 0.62343 0.01200
C 	C 	0.59504 0.39533 0.61224 -0.06300
C 	C 	0.65228 0.41021 0.58609 0.02800
C 	C 	0.66629 0.34962 0.57288 -0.06800
C 	C 	0.61442 0.27256 0.58429 0.01600
C 	C 	0.67644 0.48235 0.56991 0.00100
C 	C 	0.75444 0.55773 0.58107 -0.03300
C 	C 	0.75460 0.62654 0.57124 -0.03500
C 	C 	0.67729 0.62018 0.55007 0.00500
C 	C 	0.60526 0.54555 0.53735 -0.03600
C 	C 	0.60493 0.47694 0.54720 -0.03300
C 	C 	0.67291 0.69153 0.54073 0.03100
C 	C 	0.57788 0.69770 0.54548 -0.06200
C 	C 	0.56446 0.75708 0.53166 0.01800
C 	C 	0.64502 0.80949 0.51250 -0.08100
C 	C 	0.74408 0.80721 0.50985 0.01900
C 	C 	0.75772 0.74849 0.52389 -0.06100
H 	H 	0.49418 0.30709 0.64296 0.04300
H 	H 	0.58552 0.44226 0.62287 0.05700
H 	H 	0.71225 0.36116 0.55295 0.04700
H 	H 	0.62253 0.22539 0.57341 0.03700
H 	H 	0.81080 0.56249 0.59841 0.04700
H 	H 	0.81254 0.68438 0.58061 0.04900
H 	H 	0.54746 0.54054 0.52039 0.05100
H 	H 	0.54403 0.41899 0.53858 0.04200
H 	H 	0.51292 0.65481 0.55905 0.05200
H 	H 	0.49049 0.76094 0.53532 0.03700
H 	H 	0.80877 0.84884 0.49593 0.04100
H 	H 	0.83207 0.74485 0.52052 0.05400
C 	C 	0.66513 0.89525 0.70530 -0.03100
C 	C 	0.55948 0.88515 0.70036 -0.08000
C 	C 	0.46747 0.81689 0.71101 0.12800
C 	C 	0.48277 0.76803 0.73075 -0.03400
C 	C 	0.58972 0.78651 0.73962 -0.07500
C 	C 	0.68031 0.84512 0.72447 0.12500
H 	H 	0.73590 0.94433 0.69532 0.07100
H 	H 	0.41163 0.71928 0.74071 0.08300
Br	Br	0.32064 0.79121 0.69986 -0.21300
C 	C 	0.16321 0.87770 0.73791 -0.03000
C 	C 	0.23432 0.95558 0.74822 -0.07800
C 	C 	0.21430 0.98075 0.77536 0.12100
C 	C 	0.12393 0.92792 0.79184 -0.02700
C 	C 	0.05136 0.85060 0.78120 -0.07900
C 	C 	0.07226 0.82509 0.75423 0.13400
Br	Br	0.97356 0.72062 0.73828 -0.17800
H 	H 	0.17513 0.85936 0.71648 0.08300
H 	H 	0.10800 0.94800 0.81247 0.06000
Br	Br	0.30544 0.08831 0.78954 -0.16700
C 	C 	0.47306 0.34147 0.73566 -0.02900
C 	C 	0.55205 0.31931 0.72850 -0.07300
C 	C 	0.66313 0.36967 0.73674 0.12600
C 	C 	0.69423 0.44236 0.75122 -0.03200
C 	C 	0.61474 0.46380 0.75913 -0.07700
C 	C 	0.50254 0.41158 0.75167 0.12200
Br	Br	0.38589 0.42749 0.76663 -0.23700
H 	H 	0.38713 0.30187 0.73006 0.07700
Br	Br	0.77361 0.33999 0.72928 -0.20700
C 	C 	0.77994 0.23606 0.98361 -0.08700
C 	C 	0.76486 0.23207 0.01382 0.02500
C 	C 	0.85300 0.27949 0.03257 -0.06600
C 	C 	0.95642 0.33265 0.02122 0.04000
C 	C 	0.97204 0.33534 0.99100 -0.05000
C 	C 	0.88422 0.28687 0.97227 0.02300
C 	C 	0.21261 0.51066 0.07512 0.00100
C 	C 	0.23361 0.45853 0.05815 -0.03500
C 	C 	0.14907 0.39865 0.04112 -0.03300
C 	C 	0.30231 0.57811 0.09108 0.03000
C 	C 	0.29530 0.58396 0.12136 -0.06500
C 	C 	0.34793 0.65875 0.13524 0.01600
C 	C 	0.40908 0.72798 0.11893 -0.08800
C 	C 	0.42951 0.72051 0.08947 0.01800
C 	C 	0.37697 0.64550 0.07568 -0.06900
H 	H 	0.68503 0.19185 0.02277 0.03100
H 	H 	0.84043 0.27637 0.05589 0.06000
H 	H 	0.89669 0.28986 0.94895 0.04700
H 	H 	0.94265 0.43940 0.05727 0.05500
H 	H 	0.31532 0.46486 0.05795 0.04500
H 	H 	0.16537 0.35818 0.02818 0.04200
H 	H 	0.24137 0.53150 0.13367 0.05900
H 	H 	0.33717 0.66322 0.15840 0.04500
H 	H 	0.48259 0.77284 0.07703 0.03600
H 	H 	0.38623 0.64095 0.05245 0.04700
C 	C 	0.48178 0.87733 0.96239 -0.07400
C 	C 	0.49997 0.86224 0.99118 0.01600
C 	C 	0.41333 0.80240 0.00668 -0.06200
C 	C 	0.30895 0.75800 0.99323 0.03000
C 	C 	0.30142 0.75921 0.96277 -0.05700
C 	C 	0.38877 0.81896 0.94732 0.01800
C 	C 	0.21000 0.73625 0.01081 0.00400
C 	C 	0.15579 0.78134 0.00768 -0.03400
C 	C 	0.12214 0.80584 0.03253 -0.03600
C 	C 	0.14581 0.78669 0.06020 0.00500
C 	C 	0.16913 0.72322 0.06217 -0.03700
C 	C 	0.19776 0.69612 0.03705 -0.03700
C 	C 	0.18507 0.84812 0.08382 0.02300
C 	C 	0.26820 0.92649 0.07793 -0.04700
C 	C 	0.33781 0.97523 0.10034 -0.01600
C 	C 	0.32567 0.94578 0.12870 -0.06300
C 	C 	0.22968 0.87433 0.13542 0.01500
C 	C 	0.16009 0.82509 0.11295 -0.05300
H 	H 	0.57545 0.90347 0.00263 0.03800
H 	H 	0.42304 0.79841 0.02992 0.04800
H 	H 	0.22393 0.72073 0.95162 0.06500
H 	H 	0.37788 0.82644 0.92460 0.04200
H 	H 	0.15440 0.80677 0.98684 0.05500
H 	H 	0.09366 0.84903 0.03051 0.04900
H 	H 	0.17855 0.70221 0.08327 0.04600
H 	H 	0.22488 0.65231 0.03875 0.04300
H 	H 	0.28565 0.94677 0.05567 0.04200
H 	H 	0.40704 0.03291 0.09516 0.06300
H 	H 	0.21464 0.85329 0.15762 0.03900
H 	H 	0.09258 0.76650 0.11798 0.05200
C 	C 	0.70696 0.79763 0.12642 -0.07400
C 	C 	0.63315 0.71877 0.13450 0.01900
C 	C 	0.60336 0.65518 0.11464 -0.05700
C 	C 	0.64720 0.66973 0.08648 0.02900
C 	C 	0.72561 0.74797 0.07897 -0.06100
C 	C 	0.75510 0.81153 0.09878 0.01600
C 	C 	0.60761 0.60361 0.06445 0.00300
C 	C 	0.60900 0.53258 0.07084 -0.03400
C 	C 	0.57244 0.47059 0.05001 -0.03600
C 	C 	0.53416 0.47892 0.02254 0.00500
C 	C 	0.53140 0.54940 0.01623 -0.03600
C 	C 	0.56849 0.61163 0.03700 -0.03500
C 	C 	0.50188 0.41522 0.99998 0.03200
C 	C 	0.39101 0.36820 0.99133 -0.05500
C 	C 	0.35905 0.30197 0.97257 0.02400
C 	C 	0.43791 0.28292 0.96204 -0.07300
C 	C 	0.54949 0.33272 0.96948 0.01900
C 	C 	0.58125 0.39842 0.98834 -0.05200
H 	H 	0.59293 0.70725 0.15536 0.05300
H 	H 	0.54230 0.59526 0.12069 0.05700
H 	H 	0.76227 0.75979 0.05760 0.05500
H 	H 	0.81352 0.87180 0.09238 0.04300
H 	H 	0.63952 0.52571 0.09181 0.05100
H 	H 	0.57477 0.41637 0.05512 0.04800
H 	H 	0.50199 0.55646 0.99513 0.05500
H 	H 	0.56688 0.66602 0.03176 0.04300
H 	H 	0.32927 0.38136 0.99983 0.05000
H 	H 	0.27264 0.26386 0.96714 0.04500
H 	H 	0.61136 0.31916 0.96143 0.04500
H 	H 	0.66727 0.43503 0.99451 0.05700
C 	C 	0.34448 0.83264 0.86613 -0.03800
C 	C 	0.39185 0.90394 0.85051 -0.07000
C 	C 	0.44827 0.90741 0.82481 0.12800
C 	C 	0.47853 0.84897 0.81905 -0.04100
C 	C 	0.45218 0.78667 0.83871 -0.07000
C 	C 	0.37667 0.77463 0.86090 0.12800
H 	H 	0.29058 0.82551 0.88389 0.06800
H 	H 	0.52821 0.85497 0.80030 0.07600
Br	Br	0.49215 0.99477 0.79859 -0.20100
C 	C 	0.12234 0.83158 0.92322 -0.04100
C 	C 	0.11918 0.89346 0.93879 -0.08500
C 	C 	0.02062 0.89684 0.93837 0.11200
C 	C 	0.94364 0.85824 0.91584 -0.02500
C 	C 	0.96033 0.81010 0.89556 -0.06900
C 	C 	0.04445 0.79066 0.90103 0.11300
Br	Br	0.05612 0.71042 0.87830 -0.22600
H 	H 	0.19259 0.82252 0.92570 0.05400
H 	H 	0.87270 0.86699 0.91374 0.07400
Br	Br	0.99886 0.96393 0.96567 -0.22400
C 	C 	0.58881 0.34381 0.88742 -0.03000
C 	C 	0.59010 0.29141 0.86616 -0.08200
C 	C 	0.57705 0.30471 0.83666 0.13200
C 	C 	0.55321 0.36508 0.82899 -0.03900
C 	C 	0.55459 0.41877 0.85010 -0.06900
H 	H 	0.54107 0.37344 0.80638 0.07300
Br	Br	0.59746 0.24346 0.80647 -0.17000
C 	C 	0.58664 0.50060 0.84116 0.30200
C 	C 	0.60583 0.75813 0.76806 0.32200
C 	C 	0.64821 0.53763 0.77680 0.30100
C 	C 	0.52184 0.74806 0.83974 0.29500
O 	O 	0.68344 0.55688 0.85005 -0.35800
O 	O 	0.66908 0.81322 0.78729 -0.36900
O 	O 	0.74604 0.57309 0.78984 -0.35700
O 	O 	0.62743 0.79235 0.84719 -0.36100
O 	O 	0.68436 0.68541 0.82195 -0.70700
H 	H 	0.66363 0.67886 0.84269 0.15000
Ni	Ni	0.22399 0.18754 0.29095 1.12100
O 	O 	0.10680 0.27628 0.33051 -0.35100
O 	O 	0.11648 0.18683 0.26078 -0.37100
O 	O 	0.11428 0.30404 0.27005 -0.37400
O 	O 	0.11619 0.16210 0.32325 -0.37700
C 	C 	0.06988 0.55631 0.56334 -0.02600
C 	C 	0.02239 0.50301 0.58626 -0.05300
C 	C 	0.91011 0.36356 0.60480 0.02300
C 	C 	0.86762 0.23634 0.62625 0.01400
H 	H 	0.12218 0.61950 0.56812 0.04200
H 	H 	0.03863 0.52553 0.60853 0.05200
H 	H 	0.87488 0.18259 0.62584 0.04600
H 	H 	0.97298 0.28683 0.58948 0.05200
H 	H 	0.78021 0.48141 0.75686 0.08900
C 	C 	0.04384 0.39174 0.04060 -0.00200
C 	C 	0.02315 0.44363 0.05778 -0.04500
C 	C 	0.10676 0.50227 0.07512 -0.03100
H 	H 	0.05135 0.37649 0.98200 0.04800
H 	H 	0.09033 0.54292 0.08794 0.04200
Br	Br	0.31909 0.68110 0.88457 -0.20200
C 	C 	0.56579 0.40463 0.87970 0.13000
Br	Br	0.55137 0.46891 0.90983 -0.20800
H 	H 	0.59988 0.33464 0.91011 0.07000
C 	C 	0.98379 0.44599 0.52848 -0.02000
C 	C 	0.95647 0.42069 0.58046 0.01900
Br	Br	0.82336 0.85475 0.72844 -0.20300
H 	H 	0.96938 0.42340 0.50622 0.04800
H 	H 	0.97126 0.56856 0.48718 0.06300
Ni	Ni	0.22185 0.35436 0.30360 1.12400
C 	C 	0.92274 0.29526 0.60549 -0.05600
