data_crystal

_cell_length_a 16.24075
_cell_length_b 16.73896
_cell_length_c 60.82947
_cell_angle_alpha 90.03122
_cell_angle_beta  90.02300
_cell_angle_gamma 119.84993

_symmetry_space_group_name_	'P 1'
_symmetry_space_group_name_H-M	'P 1'

loop_
_symmetry_equiv_pos_as_xyz
  x,y,z

loop_
_atom_site_label
_atom_site_type_symbol
_atom_site_fract_x
_atom_site_fract_y
_atom_site_fract_z
_atom_site_charge
O 	O 	0.03599 0.18556 0.76078 -0.33600
O 	O 	0.02242 0.83727 0.78092 -0.34400
O 	O 	0.05059 0.14558 0.80653 -0.35400
H 	H 	0.00209 0.00123 0.24666 0.16600
C 	C 	0.02059 0.81935 0.98347 0.35100
C 	C 	0.02293 0.80914 0.15959 0.12300
C 	C 	0.16761 0.62190 0.47410 0.30900
C 	C 	0.13716 0.61233 0.41380 0.32700
O 	O 	0.17365 0.68508 0.46032 -0.34200
O 	O 	0.19621 0.70299 0.41455 -0.33000
O 	O 	0.13623 0.55738 0.42956 -0.35700
C 	C 	0.12336 0.55291 0.65822 0.34700
O 	O 	0.20252 0.56814 0.64980 -0.34600
O 	O 	0.12559 0.59123 0.67727 -0.33100
C 	C 	0.11306 0.19907 0.75032 0.32500
C 	C 	0.14198 0.19549 0.80270 0.29000
C 	C 	0.05766 0.91909 0.73307 0.35900
C 	C 	0.09518 0.88347 0.79471 0.28800
Ni	Ni	0.13590 0.05189 0.77014 1.12900
O 	O 	0.12734 0.95957 0.74736 -0.35700
O 	O 	0.12623 0.12949 0.74595 -0.34300
O 	O 	0.14902 0.97462 0.79369 -0.35500
O 	O 	0.18875 0.16300 0.79120 -0.34800
O 	O 	0.21004 0.47689 0.87704 -0.35800
O 	O 	0.14873 0.66186 0.90338 -0.35500
C 	C 	0.17795 0.10115 0.25661 0.30600
C 	C 	0.16891 0.11680 0.19184 0.30000
Ni	Ni	0.07799 0.95490 0.22239 1.12400
Ni	Ni	0.05050 0.13452 0.22779 1.13000
O 	O 	0.19204 0.05945 0.23976 -0.33800
O 	O 	0.14181 0.15572 0.25306 -0.32800
O 	O 	0.12059 0.02646 0.19287 -0.35700
O 	O 	0.16492 0.16734 0.20800 -0.35300
O 	O 	0.02609 0.87462 0.25023 -0.33600
C 	C 	0.13671 0.20348 0.98855 0.31800
Ni	Ni	0.12608 0.08431 0.02830 1.12200
Ni	Ni	0.08739 0.01298 0.97756 1.13000
O 	O 	0.18318 0.19616 0.00594 -0.33300
O 	O 	0.09744 0.13678 0.97362 -0.34400
O 	O 	0.21804 0.04027 0.01885 -0.36000
O 	O 	0.09637 0.90052 0.98297 -0.36800
Br	Br	0.10217 0.17395 0.29854 -0.12600
Br	Br	0.17482 0.80976 0.06531 -0.11800
C 	C 	0.12468 0.07571 0.14560 0.11600
N 	N 	0.04785 0.02444 0.14021 -0.08000
N 	N 	0.10328 0.86156 0.15830 -0.09200
C 	C 	0.09804 0.35354 0.95201 0.10700
C 	C 	0.07435 0.29438 0.97030 0.12000
C 	C 	0.14661 0.29359 0.98280 -0.09400
Br	Br	0.00050 0.33259 0.93090 -0.12800
C 	C 	0.02103 0.74603 0.97040 -0.07700
C 	C 	0.08700 0.71836 0.97610 0.10400
C 	C 	0.14080 0.70670 0.95956 0.11200
C 	C 	0.12704 0.72190 0.93741 -0.10200
C 	C 	0.04934 0.73367 0.93174 0.12600
Br	Br	0.02922 0.75676 0.90167 -0.15000
Br	Br	0.11163 0.70845 0.00659 -0.10500
C 	C 	0.13071 0.83113 0.80793 -0.04600
C 	C 	0.10317 0.71250 0.83531 0.00400
C 	C 	0.06731 0.75176 0.82004 0.02900
C 	C 	0.03798 0.63111 0.84761 0.13400
C 	C 	0.19636 0.28157 0.81543 -0.04800
C 	C 	0.17590 0.35379 0.81280 0.01100
C 	C 	0.21629 0.42971 0.82712 0.01100
C 	C 	0.20876 0.51035 0.82203 0.10900
N 	N 	0.20195 0.57392 0.81750 -0.08400
C 	C 	0.17372 0.28974 0.73955 -0.09000
Br	Br	0.00382 0.29864 0.72856 -0.10100
C 	C 	0.18073 0.92080 0.67996 0.10600
C 	C 	0.13764 0.82593 0.67613 -0.08500
C 	C 	0.04719 0.76963 0.68501 0.11100
C 	C 	0.02054 0.79761 0.70422 0.12200
C 	C 	0.07577 0.89006 0.71140 -0.10000
C 	C 	0.15069 0.95358 0.69786 0.11400
Br	Br	0.20769 0.08388 0.70291 -0.12800
C 	C 	0.05614 0.57398 0.39853 -0.08500
Br	Br	0.17445 0.54117 0.36865 -0.13200
C 	C 	0.04259 0.52753 0.64319 -0.08800
C 	C 	0.01346 0.48477 0.48482 0.02900
C 	C 	0.08452 0.57707 0.48874 -0.05900
C 	C 	0.06768 0.63086 0.50398 0.02700
C 	C 	0.14080 0.72512 0.50838 0.11100
C 	C 	0.03027 0.42793 0.46952 0.09900
N 	N 	0.04349 0.38225 0.45737 -0.09900
N 	N 	0.19918 0.80030 0.51188 -0.08700
C 	C 	0.10685 0.34661 0.79666 0.09800
O 	O 	0.16913 0.50930 0.91983 -0.33800
Br	Br	0.28273 0.00390 0.66138 -0.11900
C 	C 	0.13615 0.34820 0.73564 0.10400
O 	O 	0.04002 0.01175 0.00629 -0.71600
C 	C 	0.05596 0.51839 0.38131 0.10800
O 	O 	0.08331 0.99280 0.05532 -0.32300
C 	C 	0.19469 0.41989 0.94808 -0.08300
Br	Br	0.23168 0.66888 0.96715 -0.14500
O 	O 	0.20610 0.75139 0.65434 -0.31700
O 	O 	0.23120 0.08659 0.98350 -0.34200
Br	Br	0.33572 0.26228 0.74758 -0.16400
C 	C 	0.27004 0.07596 0.00147 0.33900
O 	O 	0.21620 0.64011 0.86112 -0.36700
C 	C 	0.26561 0.42788 0.84596 -0.05300
C 	C 	0.27258 0.32497 0.73604 0.10900
Ni	Ni	0.29154 0.76438 0.44060 1.12200
Ni	Ni	0.25110 0.55379 0.44191 1.13000
O 	O 	0.22332 0.58646 0.47194 -0.36600
O 	O 	0.28783 0.52553 0.41262 -0.34200
C 	C 	0.19972 0.78594 0.67384 0.32100
Ni	Ni	0.30141 0.70354 0.64504 1.13400
Ni	Ni	0.24703 0.65893 0.69606 1.13500
O 	O 	0.23252 0.76995 0.69225 -0.35700
O 	O 	0.25513 0.54472 0.69436 -0.36300
C 	C 	0.28176 0.49181 0.86436 0.30400
C 	C 	0.22339 0.47660 0.92761 0.31900
C 	C 	0.23878 0.72710 0.85862 0.30400
C 	C 	0.18890 0.71859 0.92017 0.32600
Ni	Ni	0.19539 0.57980 0.89090 1.12700
O 	O 	0.29541 0.48294 0.91595 -0.34000
O 	O 	0.28154 0.78756 0.87444 -0.36000
C 	C 	0.26204 0.16249 0.31582 0.10400
C 	C 	0.24487 0.03194 0.28436 0.10500
C 	C 	0.20816 0.09176 0.27957 -0.08900
C 	C 	0.20354 0.14543 0.29715 0.10100
Br	Br	0.23227 0.93731 0.26422 -0.15300
C 	C 	0.29328 0.17777 0.13597 0.01000
C 	C 	0.22126 0.13953 0.15212 0.01000
C 	C 	0.24381 0.16192 0.17458 -0.05000
C 	C 	0.27070 0.14989 0.11315 0.11700
N 	N 	0.25288 0.12759 0.09496 -0.08600
C 	C 	0.26449 0.42861 0.96356 0.10700
C 	C 	0.23705 0.37124 0.98211 0.11600
Br	Br	0.31720 0.40658 0.00770 -0.11900
C 	C 	0.22934 0.86487 0.80980 0.01500
C 	C 	0.26473 0.83368 0.82691 0.01000
C 	C 	0.20210 0.75515 0.83931 -0.04100
C 	C 	0.29416 0.92851 0.79358 0.11400
C 	C 	0.28995 0.35817 0.84820 0.01400
C 	C 	0.25754 0.28638 0.83255 0.01100
C 	C 	0.28320 0.21522 0.83472 0.11400
N 	N 	0.30365 0.15841 0.83644 -0.08900
C 	C 	0.32722 0.41223 0.72587 0.11300
C 	C 	0.28821 0.47058 0.72346 -0.09600
C 	C 	0.19817 0.44175 0.73253 0.11300
Br	Br	0.15738 0.52905 0.73918 -0.19500
Br	Br	0.25565 0.45900 0.60589 -0.13500
N 	N 	0.21976 0.44603 0.50924 -0.08800
C 	C 	0.04630 0.90337 0.05256 0.33900
C 	C 	0.28937 0.04016 0.30483 0.11000
Br	Br	0.25918 0.23646 0.33952 -0.12800
C 	C 	0.04426 0.77276 0.07111 0.11600
Br	Br	0.37334 0.95420 0.01132 -0.10000
H 	H 	0.32854 0.67909 0.41908 0.17300
C 	C 	0.32017 0.53957 0.70560 0.34400
O 	O 	0.28050 0.78297 0.91981 -0.34300
N 	N 	0.34591 0.97932 0.78064 -0.08000
C 	C 	0.29223 0.45143 0.50550 0.10900
Br	Br	0.00265 0.68303 0.23207 -0.14500
Br	Br	0.17776 0.65180 0.61013 -0.24300
Br	Br	0.04151 0.14656 0.08679 -0.14500
O 	O 	0.33310 0.68025 0.43524 -0.72200
O 	O 	0.32173 0.65592 0.90111 -0.72200
H 	H 	0.30906 0.65450 0.91697 0.16700
C 	C 	0.31613 0.11843 0.31781 -0.09500
C 	C 	0.33879 0.22505 0.18062 0.00900
C 	C 	0.34551 0.35862 0.86692 0.10600
Br	Br	0.30781 0.34992 0.41677 -0.14400
O 	O 	0.02229 0.86863 0.03297 -0.36000
Br	Br	0.32399 0.95116 0.31407 -0.10400
O 	O 	0.34278 0.71545 0.67420 -0.71900
O 	O 	0.33803 0.51462 0.45596 -0.35800
O 	O 	0.36926 0.81067 0.46933 -0.36100
O 	O 	0.36892 0.54963 0.87048 -0.36100
C 	C 	0.37375 0.12435 0.00428 -0.10200
C 	C 	0.36505 0.24311 0.20365 0.11400
C 	C 	0.05472 0.57787 0.62347 0.12700
O 	O 	0.00510 0.00145 0.77803 -0.71100
O 	O 	0.02228 0.11211 0.03772 -0.33900
O 	O 	0.38657 0.65914 0.62913 -0.32600
C 	C 	0.36418 0.88732 0.83291 0.11000
O 	O 	0.40720 0.59449 0.65982 -0.35700
O 	O 	0.34261 0.71814 0.72169 -0.33400
N 	N 	0.38612 0.25754 0.22201 -0.08800
Br	Br	0.37467 0.83401 0.36266 -0.11900
Br	Br	0.31863 0.31085 0.58595 -0.15200
N 	N 	0.28246 0.25444 0.53201 -0.08000
H 	H 	0.01233 0.99245 0.79379 0.15900
N 	N 	0.35834 0.99445 0.45017 -0.09900
C 	C 	0.37802 0.55755 0.40689 0.32500
O 	O 	0.40339 0.86831 0.42177 -0.34100
C 	C 	0.40962 0.60227 0.63855 0.34600
O 	O 	0.40835 0.60872 0.70465 -0.34000
H 	H 	0.36752 0.78155 0.67698 0.18500
Ni	Ni	0.40182 0.60546 0.90190 1.12200
Ni	Ni	0.37191 0.78488 0.89687 1.12800
C 	C 	0.41071 0.08077 0.01724 0.10600
Br	Br	0.41581 0.28322 0.97794 -0.12800
C 	C 	0.38781 0.24014 0.14208 -0.04900
C 	C 	0.40960 0.26649 0.16430 0.00900
Br	Br	0.39778 0.50654 0.95800 -0.14300
C 	C 	0.37988 0.42123 0.39166 0.11300
C 	C 	0.39713 0.51122 0.38867 -0.08700
C 	C 	0.37999 0.47632 0.61205 0.10900
C 	C 	0.38305 0.45815 0.50082 0.01300
C 	C 	0.33989 0.32062 0.52348 0.12200
C 	C 	0.40667 0.56557 0.46974 0.30600
O 	O 	0.41211 0.83336 0.63995 -0.34200
C 	C 	0.42399 0.22091 0.00366 0.10700
N 	N 	0.40797 0.73265 0.81762 -0.09000
C 	C 	0.40673 0.41418 0.60340 0.10900
C 	C 	0.41294 0.00225 0.46344 0.10200
N 	N 	0.38980 0.35900 0.88187 -0.09000
C 	C 	0.41809 0.17413 0.32331 0.33900
N 	N 	0.05123 0.34194 0.78407 -0.08000
O 	O 	0.00056 0.00454 0.23049 -0.71700
Br	Br	0.41379 0.65089 0.76297 -0.14900
C 	C 	0.41946 0.38472 0.37714 0.11700
C 	C 	0.41122 0.40301 0.51256 0.00900
Br	Br	0.45293 0.45001 0.71520 -0.11700
C 	C 	0.43402 0.78515 0.72058 0.32600
N 	N 	0.44347 0.93086 0.83770 -0.09100
C 	C 	0.44009 0.55885 0.36909 0.11000
Br	Br	0.42455 0.27668 0.38624 -0.18100
C 	C 	0.44377 0.55017 0.62549 -0.09600
O 	O 	0.44906 0.60821 0.42078 -0.35100
Ni	Ni	0.45180 0.70410 0.67985 1.13100
C 	C 	0.46354 0.12580 0.03612 0.11100
Br	Br	0.46802 0.68364 0.36524 -0.13000
C 	C 	0.44305 0.51970 0.48455 -0.05200
C 	C 	0.01625 0.83935 0.07137 -0.09200
C 	C 	0.46187 0.85906 0.46916 0.30700
O 	O 	0.45373 0.65572 0.46776 -0.36700
O 	O 	0.45538 0.68092 0.93061 -0.33400
O 	O 	0.44779 0.21325 0.34278 -0.32900
C 	C 	0.46940 0.86261 0.40973 0.33200
Ni	Ni	0.46334 0.71763 0.43877 1.12800
O 	O 	0.46281 0.79663 0.87190 -0.35300
C 	C 	0.46572 0.26599 0.12599 0.29400
O 	O 	0.48612 0.79295 0.41133 -0.35100
O 	O 	0.47589 0.82335 0.92031 -0.33400
O 	O 	0.47547 0.32132 0.10944 -0.34300
C 	C 	0.48560 0.27050 0.02122 0.10300
Br	Br	0.49061 0.05581 0.05725 -0.16700
C 	C 	0.46734 0.51656 0.35280 0.11100
C 	C 	0.46258 0.43180 0.35724 -0.08600
C 	C 	0.48130 0.01231 0.48013 0.01800
H 	H 	0.00662 0.04619 0.00346 0.18100
O 	O 	0.48460 0.80112 0.70244 -0.36400
O 	O 	0.47790 0.19617 0.30736 -0.36300
C 	C 	0.49380 0.22104 0.03930 -0.08900
C 	C 	0.48383 0.76701 0.82488 0.11200
C 	C 	0.48746 0.82578 0.74098 -0.09300
N 	N 	0.48776 0.22490 0.48659 -0.09600
O 	O 	0.49373 0.21015 0.07918 -0.35600
C 	C 	0.49878 0.86056 0.64713 0.31500
O 	O 	0.49609 0.33026 0.54339 -0.34700
C 	C 	0.50525 0.33575 0.17041 0.10800
Br	Br	0.49903 0.00156 0.73551 -0.12900
C 	C 	0.50244 0.92149 0.37147 0.11200
C 	C 	0.49755 0.42667 0.60784 -0.09100
C 	C 	0.50227 0.16497 0.48996 0.11300
C 	C 	0.50994 0.94541 0.48219 -0.05100
O 	O 	0.51154 0.83985 0.45516 -0.35000
C 	C 	0.50728 0.77222 0.92997 0.32800
C 	C 	0.50543 0.42005 0.51062 -0.04100
O 	O 	0.50539 0.38102 0.32331 -0.32800
Br	Br	0.50731 0.99318 0.26959 -0.11200
Br	Br	0.50568 0.73103 0.98184 -0.09800
Br	Br	0.50687 0.16638 0.63733 -0.10800
O 	O 	0.51483 0.22270 0.12685 -0.35600
C 	C 	0.51130 0.77152 0.75402 0.10600
Br	Br	0.52501 0.03405 0.67662 -0.12300
C 	C 	0.52041 0.26372 0.06183 0.31800
O 	O 	0.52315 0.80039 0.65524 -0.32800
C 	C 	0.52043 0.76166 0.87227 0.30900
O 	O 	0.52165 0.71438 0.88909 -0.36900
Br	Br	0.51814 0.57817 0.32519 -0.12100
C 	C 	0.52044 0.08982 0.49413 0.00900
O 	O 	0.52135 0.30899 0.59052 -0.34500
C 	C 	0.52590 0.93610 0.39387 -0.09600
C 	C 	0.52337 0.40534 0.34469 0.33100
O 	O 	0.52966 0.17674 0.53551 -0.35200
C 	C 	0.53126 0.52542 0.48011 0.01500
C 	C 	0.53256 0.55908 0.63076 0.11200
Ni	Ni	0.53264 0.25081 0.56231 1.12700
Br	Br	0.00200 0.58830 0.06030 -0.10200
O 	O 	0.53581 0.14796 0.58043 -0.34200
N 	N 	0.53973 0.55129 0.15410 -0.08900
C 	C 	0.54299 0.39613 0.59149 0.34300
C 	C 	0.54870 0.92094 0.74128 0.10800
C 	C 	0.55115 0.39632 0.52898 0.28200
Br	Br	0.55213 0.94609 0.32542 -0.09900
O 	O 	0.55366 0.35279 0.06464 -0.32800
C 	C 	0.55555 0.49310 0.62336 0.10600
C 	C 	0.55785 0.02624 0.64673 0.10300
C 	C 	0.55772 0.08672 0.63067 0.11600
C 	C 	0.99129 0.73674 0.94843 0.07400
N 	N 	0.98594 0.56618 0.85743 -0.10900
Br	Br	0.91781 0.70673 0.72185 -0.16100
Br	Br	0.96099 0.65581 0.67087 -0.14200
Br	Br	0.93347 0.38588 0.67540 -0.11800
Br	Br	0.96811 0.64204 0.42911 -0.15800
Br	Br	0.97454 0.51672 0.26743 -0.12200
C 	C 	0.95201 0.45415 0.64856 0.10500
O 	O 	0.97018 0.89269 0.73886 -0.36300
Br	Br	0.87371 0.73200 0.94132 -0.14300
C 	C 	0.59633 0.15486 0.53092 0.28100
C 	C 	0.82566 0.43905 0.59572 0.34400
C 	C 	0.60553 0.15884 0.59363 0.34800
C 	C 	0.84764 0.44677 0.53151 0.28500
Ni	Ni	0.74963 0.28828 0.56257 1.12300
Ni	Ni	0.70586 0.45698 0.56156 1.13000
O 	O 	0.66036 0.16512 0.54593 -0.34100
O 	O 	0.59312 0.45394 0.57590 -0.36900
O 	O 	0.85018 0.40022 0.58028 -0.35200
O 	O 	0.75890 0.45999 0.59203 -0.34500
O 	O 	0.68917 0.23171 0.59232 -0.35600
O 	O 	0.64284 0.45432 0.53300 -0.36400
O 	O 	0.82297 0.35933 0.53480 -0.35300
O 	O 	0.83352 0.49433 0.54709 -0.34900
O 	O 	0.66421 0.33018 0.55724 -0.72000
H 	H 	0.66425 0.32848 0.54106 0.15600
C 	C 	0.81899 0.90124 0.80734 0.28400
C 	C 	0.78032 0.93048 0.75902 0.32500
Ni	Ni	0.95245 0.07752 0.78209 1.11400
Ni	Ni	0.92677 0.87532 0.77026 1.12500
O 	O 	0.86083 0.99218 0.80625 -0.35400
O 	O 	0.86143 0.85517 0.80011 -0.35400
O 	O 	0.84175 0.01908 0.75969 -0.34600
O 	O 	0.81051 0.87154 0.75640 -0.33800
C 	C 	0.81329 0.55582 0.08596 0.30900
C 	C 	0.73712 0.52397 0.13278 0.28900
C 	C 	0.72699 0.21521 0.13396 0.31100
C 	C 	0.76784 0.23854 0.08228 0.31400
Ni	Ni	0.60623 0.41483 0.09526 1.12000
Ni	Ni	0.58774 0.21057 0.10123 1.13000
Ni	Ni	0.78698 0.39199 0.11195 1.12900
O 	O 	0.72414 0.52124 0.07935 -0.33100
O 	O 	0.84685 0.50085 0.09121 -0.34800
O 	O 	0.64930 0.16475 0.12270 -0.36800
O 	O 	0.82388 0.32250 0.09051 -0.34300
O 	O 	0.65191 0.49230 0.12408 -0.34700
O 	O 	0.77166 0.46860 0.13567 -0.35200
O 	O 	0.67566 0.20617 0.07857 -0.34800
O 	O 	0.75883 0.30324 0.13657 -0.36800
O 	O 	0.66483 0.34269 0.09944 -0.71100
H 	H 	0.68624 0.34893 0.08405 0.15400
C 	C 	0.91101 0.82890 0.19377 0.30800
C 	C 	0.93550 0.81372 0.25328 0.32500
C 	C 	0.88342 0.07469 0.19709 0.30700
C 	C 	0.87145 0.07584 0.25339 0.31600
Ni	Ni	0.86737 0.92892 0.22713 1.12800
O 	O 	0.83128 0.01151 0.21145 -0.37900
O 	O 	0.98237 0.83590 0.20540 -0.34900
O 	O 	0.87925 0.88583 0.19694 -0.37500
O 	O 	0.96131 0.13954 0.25055 -0.33600
O 	O 	0.84681 0.98712 0.25394 -0.33900
O 	O 	0.86524 0.81818 0.24279 -0.34800
O 	O 	0.97521 0.13234 0.20066 -0.35700
C 	C 	0.64909 0.21620 0.28083 0.34400
C 	C 	0.77739 0.47460 0.29488 0.31700
C 	C 	0.65368 0.14634 0.34968 0.34200
C 	C 	0.80313 0.39614 0.36308 0.32800
Ni	Ni	0.57668 0.33108 0.30238 1.12100
Ni	Ni	0.75317 0.30838 0.32015 1.13100
Ni	Ni	0.58901 0.27678 0.35303 1.13200
O 	O 	0.58534 0.39354 0.35593 -0.35300
O 	O 	0.73767 0.21135 0.34276 -0.34000
O 	O 	0.62687 0.28073 0.27704 -0.33400
O 	O 	0.66804 0.20235 0.30072 -0.36500
O 	O 	0.71642 0.33194 0.37025 -0.33500
O 	O 	0.82508 0.40667 0.34202 -0.36100
O 	O 	0.68888 0.45854 0.29448 -0.34100
O 	O 	0.79579 0.40503 0.29532 -0.33600
O 	O 	0.57982 0.15624 0.34737 -0.37100
O 	O 	0.65043 0.32910 0.32605 -0.71600
H 	H 	0.68489 0.39501 0.32981 0.18100
C 	C 	0.93609 0.04702 0.04312 0.31100
C 	C 	0.87021 0.92273 0.97264 0.33400
Ni	Ni	0.93695 0.89613 0.01469 1.13000
O 	O 	0.94090 0.80849 0.99197 -0.35200
O 	O 	0.95375 0.94321 0.96339 -0.34100
O 	O 	0.86057 0.92508 0.99409 -0.35500
O 	O 	0.90781 0.95732 0.04084 -0.33300
C 	C 	0.91356 0.58846 0.27247 0.11100
C 	C 	0.85401 0.56973 0.29074 -0.09200
C 	C 	0.84572 0.64236 0.30009 0.10900
C 	C 	0.87185 0.72266 0.28778 0.10600
C 	C 	0.91230 0.73217 0.26680 -0.09000
C 	C 	0.93800 0.66708 0.25965 0.10500
Br	Br	0.85221 0.81895 0.29950 -0.13100
Br	Br	0.79540 0.62945 0.32937 -0.14600
C 	C 	0.63998 0.07750 0.26511 0.11300
C 	C 	0.67103 0.17137 0.26283 -0.10600
C 	C 	0.75227 0.22466 0.25036 0.10500
C 	C 	0.81776 0.19391 0.24671 0.09700
C 	C 	0.79770 0.10537 0.25486 -0.08600
C 	C 	0.70574 0.04602 0.26373 0.09900
Br	Br	0.66981 0.92545 0.27519 -0.11800
Br	Br	0.92942 0.27115 0.22934 -0.17900
Br	Br	0.77213 0.33853 0.23787 -0.14000
C 	C 	0.86209 0.72447 0.08582 0.09400
C 	C 	0.88299 0.65387 0.08070 -0.08700
C 	C 	0.97524 0.67901 0.07283 0.08800
C 	C 	0.93086 0.81731 0.08209 0.09300
Br	Br	0.91145 0.91331 0.09332 -0.14500
Br	Br	0.73895 0.69538 0.09697 -0.17900
Br	Br	0.57022 0.40129 0.01827 -0.11600
C 	C 	0.92466 0.13306 0.07485 0.10300
C 	C 	0.88033 0.07509 0.05651 -0.08200
C 	C 	0.80047 0.07284 0.04699 0.09700
C 	C 	0.77675 0.13969 0.05279 0.11600
C 	C 	0.81332 0.19008 0.07236 -0.09300
C 	C 	0.88994 0.18878 0.08308 0.10500
Br	Br	0.95167 0.26637 0.10834 -0.18200
Br	Br	0.71995 0.18104 0.03106 -0.13000
Br	Br	0.72893 0.98376 0.02456 -0.12200
C 	C 	0.75639 0.16816 0.15007 -0.05300
C 	C 	0.75046 0.18153 0.17279 0.01400
C 	C 	0.77119 0.13047 0.18764 0.01600
C 	C 	0.83263 0.09920 0.18061 -0.04900
C 	C 	0.82624 0.07169 0.15850 0.00600
C 	C 	0.78276 0.10298 0.14316 0.01600
C 	C 	0.70676 0.23329 0.18066 0.12200
C 	C 	0.83904 0.99438 0.15302 0.11600
C 	C 	0.74836 0.05538 0.12238 0.10900
C 	C 	0.69976 0.07680 0.20380 0.10800
N 	N 	0.71999 0.01623 0.10595 -0.08600
N 	N 	0.64046 0.03223 0.21617 -0.08900
N 	N 	0.84724 0.93139 0.14868 -0.08300
N 	N 	0.67155 0.27438 0.18695 -0.08100
N 	N 	0.58151 0.39103 0.17535 -0.08700
C 	C 	0.78014 0.61097 0.14588 -0.04200
C 	C 	0.72316 0.63249 0.15957 0.01400
C 	C 	0.76606 0.70012 0.17607 0.01500
C 	C 	0.86590 0.75606 0.17685 -0.05000
C 	C 	0.92217 0.74330 0.16119 0.01000
C 	C 	0.88044 0.66732 0.14682 0.01100
C 	C 	0.62115 0.58714 0.15651 0.12200
C 	C 	0.94119 0.64439 0.13403 0.09400
C 	C 	0.70755 0.70965 0.19272 0.10000
N 	N 	0.99062 0.62654 0.12408 -0.09300
N 	N 	0.66090 0.71725 0.20601 -0.09600
C 	C 	0.77280 0.92263 0.94056 0.11600
C 	C 	0.78208 0.87859 0.95940 -0.08700
C 	C 	0.70009 0.80332 0.96849 0.11500
C 	C 	0.61025 0.78442 0.96154 0.11000
C 	C 	0.60036 0.81886 0.94136 -0.08800
C 	C 	0.68222 0.89106 0.93108 0.10800
Br	Br	0.67116 0.95102 0.90505 -0.16100
Br	Br	0.88278 0.02748 0.92811 -0.15600
Br	Br	0.71024 0.72263 0.98952 -0.14800
Br	Br	0.94367 0.21017 0.97757 -0.15500
C 	C 	0.96570 0.71017 0.81684 0.09100
N 	N 	0.88456 0.67672 0.81427 -0.08600
C 	C 	0.74012 0.85594 0.82317 -0.04000
C 	C 	0.75403 0.82278 0.84335 0.01000
C 	C 	0.68363 0.79331 0.85983 0.01500
C 	C 	0.59478 0.78781 0.85507 -0.05200
C 	C 	0.57882 0.80930 0.83379 0.01500
C 	C 	0.65609 0.86000 0.81999 0.00900
C 	C 	0.84424 0.82802 0.84808 0.11600
C 	C 	0.65689 0.93213 0.80678 0.10400
C 	C 	0.70375 0.77038 0.88144 0.11900
N 	N 	0.65723 0.99067 0.79660 -0.09100
N 	N 	0.72029 0.75206 0.89861 -0.08200
N 	N 	0.91621 0.83249 0.85193 -0.09200
C 	C 	0.60667 0.80519 0.76023 0.09600
C 	C 	0.67700 0.89745 0.75471 -0.09000
C 	C 	0.64617 0.95618 0.74524 0.10600
Br	Br	0.63916 0.72344 0.77554 -0.17600
Br	Br	0.73446 0.07731 0.73417 -0.12100
C 	C 	0.96946 0.56735 0.40514 0.10500
C 	C 	0.88356 0.50422 0.39460 0.10600
C 	C 	0.88334 0.44270 0.37870 -0.08400
C 	C 	0.96984 0.44595 0.37348 0.10600
Br	Br	0.97037 0.35042 0.35579 -0.14300
Br	Br	0.76765 0.50408 0.40154 -0.14500
C 	C 	0.56822 0.97990 0.35583 0.11000
C 	C 	0.64228 0.06657 0.36230 -0.09400
C 	C 	0.67028 0.07939 0.38454 0.10300
C 	C 	0.61196 0.01402 0.40040 0.10800
Br	Br	0.64741 0.03388 0.43098 -0.16800
Br	Br	0.78557 0.18759 0.39334 -0.13800
Br	Br	0.66510 0.49185 0.63492 -0.11700
Br	Br	0.62365 0.66291 0.64782 -0.15900
C 	C 	0.97502 0.56158 0.61129 0.10600
C 	C 	0.88916 0.48033 0.61457 -0.09200
C 	C 	0.87590 0.42854 0.63384 0.11300
Br	Br	0.98497 0.64730 0.58889 -0.15300
Br	Br	0.75438 0.32374 0.64015 -0.12100
C 	C 	0.62040 0.96187 0.62067 0.10600
C 	C 	0.57195 0.95319 0.64041 -0.08300
C 	C 	0.59134 0.08601 0.60941 -0.09900
C 	C 	0.62911 0.02753 0.60493 0.11000
Br	Br	0.69242 0.03692 0.57755 -0.17800
Br	Br	0.66644 0.87826 0.61440 -0.12700
C 	C 	0.56129 0.47383 0.49278 0.00700
C 	C 	0.64610 0.47115 0.48655 0.11300
C 	C 	0.59010 0.58263 0.46223 0.10600
N 	N 	0.63706 0.62823 0.44796 -0.08900
N 	N 	0.71375 0.46903 0.48156 -0.09400
C 	C 	0.58428 0.09779 0.51089 -0.04400
C 	C 	0.58554 0.96231 0.49645 0.01500
C 	C 	0.62752 0.04253 0.50955 0.01300
C 	C 	0.61872 0.89655 0.49804 0.11400
C 	C 	0.72202 0.07588 0.51831 0.12000
N 	N 	0.79775 0.10262 0.52519 -0.08800
N 	N 	0.64517 0.84402 0.49931 -0.08900
C 	C 	0.91519 0.49729 0.51335 -0.04100
C 	C 	0.92648 0.44728 0.49609 -0.00100
C 	C 	0.98031 0.59274 0.51513 0.00100
C 	C 	0.84674 0.36025 0.48901 0.11600
C 	C 	0.95273 0.65326 0.52582 0.12000
N 	N 	0.93078 0.70178 0.53428 -0.08800
N 	N 	0.78309 0.29084 0.48336 -0.09400
