data_crystal

_cell_length_a 26.96154
_cell_length_b 24.68986
_cell_length_c 31.75686
_cell_angle_alpha 104.09215
_cell_angle_beta  115.95556
_cell_angle_gamma 111.21350

_symmetry_space_group_name_	'P 1'
_symmetry_space_group_name_H-M	'P 1'

loop_
_symmetry_equiv_pos_as_xyz
  x,y,z

loop_
_atom_site_label
_atom_site_type_symbol
_atom_site_fract_x
_atom_site_fract_y
_atom_site_fract_z
_atom_site_charge
N 	N 	0.56961 0.20056 0.85707 -0.12600
C 	C 	0.53846 0.22962 0.86610 0.15600
N 	N 	0.55394 0.28938 0.86783 -0.13300
C 	C 	0.59845 0.31868 0.85839 0.15800
N 	N 	0.62668 0.28771 0.84655 -0.11800
C 	C 	0.61452 0.23006 0.84798 0.15600
C 	C 	0.40037 0.14702 0.90232 0.01900
C 	C 	0.38325 0.16265 0.86026 -0.00400
C 	C 	0.42782 0.18798 0.84767 0.00900
C 	C 	0.49051 0.19815 0.87679 -0.02400
C 	C 	0.50713 0.18069 0.91746 0.07600
C 	C 	0.46184 0.15536 0.93055 0.07700
H 	H 	0.33601 0.15692 0.83815 0.10600
H 	H 	0.41377 0.20062 0.81572 0.07700
N 	N 	0.56852 0.19470 0.95140 -0.09900
N 	N 	0.48559 0.14820 0.97523 -0.07600
C 	C 	0.74053 0.15603 0.86023 0.02300
C 	C 	0.76400 0.22263 0.87378 0.07300
C 	C 	0.72166 0.24724 0.86752 0.07500
C 	C 	0.65592 0.20421 0.84663 -0.02000
C 	C 	0.63153 0.13608 0.82849 0.00600
C 	C 	0.67344 0.11239 0.83551 -0.00500
N 	N 	0.82907 0.26956 0.90245 -0.08300
N 	N 	0.75194 0.31456 0.89123 -0.09200
C 	C 	0.70433 0.52331 0.89989 0.01400
C 	C 	0.70833 0.50493 0.93937 -0.00400
C 	C 	0.66952 0.43824 0.92530 0.00500
C 	C 	0.62572 0.38855 0.87144 -0.02300
C 	C 	0.61873 0.40709 0.83194 0.07700
C 	C 	0.65761 0.47516 0.84624 0.07300
H 	H 	0.74288 0.54191 0.98113 0.08600
H 	H 	0.67572 0.42492 0.95654 0.06800
N 	N 	0.57931 0.36277 0.77882 -0.09800
N 	N 	0.65037 0.48762 0.80502 -0.07800
S 	S 	0.56058 0.17375 0.99418 0.19100
S 	S 	0.82801 0.33711 0.91709 0.22800
S 	S 	0.59621 0.41262 0.75457 0.21400
H 	H 	0.58055 0.10156 0.81073 0.08000
H 	H 	0.65431 0.06051 0.82441 0.11200
N 	N 	0.60964 0.24762 0.41162 -0.12500
C 	C 	0.59613 0.29460 0.42404 0.15900
N 	N 	0.62520 0.35148 0.42289 -0.12000
C 	C 	0.66711 0.36109 0.40862 0.16000
N 	N 	0.67980 0.31359 0.39559 -0.13000
C 	C 	0.65154 0.25704 0.39739 0.16000
C 	C 	0.47114 0.25929 0.47742 0.02000
C 	C 	0.44940 0.25786 0.42768 -0.00200
C 	C 	0.49130 0.27207 0.41124 0.01000
C 	C 	0.55529 0.28667 0.44372 -0.02100
C 	C 	0.57779 0.28995 0.49367 0.07800
C 	C 	0.53541 0.27621 0.51068 0.07400
H 	H 	0.39950 0.24413 0.40110 0.11000
H 	H 	0.47317 0.26971 0.37250 0.07700
N 	N 	0.63749 0.29981 0.52665 -0.09800
N 	N 	0.55970 0.27451 0.55781 -0.08600
C 	C 	0.74736 0.15035 0.39921 0.02200
C 	C 	0.72133 0.16288 0.35657 0.07400
C 	C 	0.68447 0.19358 0.35324 0.07900
C 	C 	0.67491 0.21193 0.39304 -0.02300
C 	C 	0.69754 0.19491 0.43385 0.01400
C 	C 	0.73378 0.16493 0.43711 -0.00500
N 	N 	0.73506 0.15438 0.31976 -0.08200
N 	N 	0.66731 0.21041 0.31349 -0.09500
C 	C 	0.78285 0.55424 0.43028 0.01400
C 	C 	0.81039 0.51686 0.44290 0.00000
C 	C 	0.77240 0.45383 0.43552 0.00800
C 	C 	0.70556 0.42617 0.41442 -0.02000
C 	C 	0.67756 0.46254 0.40068 0.07900
C 	C 	0.71652 0.52695 0.40856 0.07900
H 	H 	0.86155 0.53689 0.45906 0.09200
H 	H 	0.79531 0.42685 0.44679 0.07300
N 	N 	0.61248 0.43852 0.37622 -0.09500
N 	N 	0.68409 0.55686 0.39097 -0.07700
S 	S 	0.63193 0.29068 0.57404 0.20500
S 	S 	0.69950 0.18536 0.28616 0.20000
S 	S 	0.60973 0.50011 0.36712 0.20700
H 	H 	0.69032 0.20824 0.46489 0.08000
H 	H 	0.75367 0.15567 0.47050 0.12500
N 	N 	0.43286 0.78675 0.00039 -0.11000
C 	C 	0.46477 0.75487 0.00087 0.17300
N 	N 	0.43622 0.69099 0.99110 -0.13900
C 	C 	0.37658 0.65972 0.98191 0.15300
N 	N 	0.34599 0.69265 0.98316 -0.12700
C 	C 	0.37406 0.75604 0.99235 0.14500
C 	C 	0.64144 0.85208 0.00991 0.03500
C 	C 	0.59964 0.78262 0.98133 -0.02100
C 	C 	0.54361 0.75084 0.98038 -0.01100
C 	C 	0.52797 0.78788 0.00796 -0.00100
C 	C 	0.57105 0.85688 0.03834 0.07700
C 	C 	0.62729 0.88911 0.03831 0.07600
H 	H 	0.60954 0.75315 0.95864 0.11300
H 	H 	0.51130 0.69749 0.95667 0.07300
N 	N 	0.56101 0.89764 0.06667 -0.09100
N 	N 	0.66377 0.95665 0.06611 -0.07500
C 	C 	0.26240 0.84607 0.98515 -0.01200
C 	C 	0.27257 0.83024 0.94550 0.08400
C 	C 	0.31221 0.80294 0.94899 0.07500
C 	C 	0.33952 0.79033 0.99135 -0.03800
C 	C 	0.32980 0.80724 0.03149 0.02400
C 	C 	0.29174 0.83497 0.02850 0.02100
N 	N 	0.24019 0.83177 0.89904 -0.07200
N 	N 	0.31292 0.78181 0.90545 -0.10200
C 	C 	0.27125 0.45757 0.94784 0.00900
C 	C 	0.24040 0.48113 0.91551 0.00200
C 	C 	0.27574 0.54627 0.92516 0.00600
C 	C 	0.34296 0.58903 0.96700 -0.01800
C 	C 	0.37503 0.56422 0.99660 0.06200
C 	C 	0.33889 0.49754 0.98649 0.06100
H 	H 	0.18840 0.44990 0.88413 0.08900
H 	H 	0.25033 0.56393 0.90081 0.07400
N 	N 	0.43853 0.60271 0.04041 -0.08300
N 	N 	0.37249 0.48056 0.02171 -0.06200
S 	S 	0.62290 0.96995 0.08869 0.20300
S 	S 	0.26444 0.79952 0.86682 0.23300
S 	S 	0.44402 0.55000 0.06208 0.22900
H 	H 	0.35085 0.79798 0.06470 0.08200
H 	H 	0.28416 0.84672 0.05948 0.08700
N 	N 	0.48885 0.83906 0.54729 -0.12400
C 	C 	0.51332 0.80390 0.53417 0.16100
N 	N 	0.48305 0.73825 0.51918 -0.13100
C 	C 	0.42827 0.70788 0.51725 0.16200
N 	N 	0.40343 0.74307 0.52957 -0.11500
C 	C 	0.43328 0.80863 0.54434 0.16500
C 	C 	0.67532 0.89575 0.52456 0.01600
C 	C 	0.61133 0.84933 0.47806 -0.00300
C 	C 	0.55858 0.81948 0.48139 0.00700
C 	C 	0.56864 0.83542 0.53128 -0.02400
C 	C 	0.63145 0.88316 0.57757 0.07600
C 	C 	0.68536 0.91331 0.57420 0.07600
H 	H 	0.60265 0.83469 0.43925 0.09900
H 	H 	0.50996 0.78340 0.44505 0.07800
N 	N 	0.64731 0.89703 0.62765 -0.09500
N 	N 	0.74598 0.95225 0.62148 -0.07600
C 	C 	0.32006 0.89768 0.53533 0.01500
C 	C 	0.30714 0.84439 0.54587 0.07300
C 	C 	0.34798 0.81781 0.55376 0.08100
C 	C 	0.40077 0.84460 0.55008 -0.01300
C 	C 	0.41736 0.90312 0.54546 0.01300
C 	C 	0.37779 0.92966 0.53877 0.00100
N 	N 	0.25246 0.81014 0.54350 -0.08600
N 	N 	0.32753 0.76185 0.55865 -0.08900
C 	C 	0.33291 0.50700 0.48918 0.01600
C 	C 	0.40167 0.54761 0.52074 0.00300
C 	C 	0.43296 0.61216 0.52761 0.01200
C 	C 	0.39606 0.63701 0.50242 -0.01800
C 	C 	0.32786 0.59480 0.46754 0.08100
C 	C 	0.29613 0.52918 0.46068 0.07500
H 	H 	0.43101 0.53040 0.54185 0.10900
H 	H 	0.48581 0.64359 0.55421 0.07700
N 	N 	0.28747 0.61443 0.44253 -0.09100
N 	N 	0.22942 0.49434 0.43020 -0.08100
S 	S 	0.72686 0.94579 0.66307 0.24300
S 	S 	0.26049 0.75049 0.55230 0.21700
S 	S 	0.21610 0.54830 0.41426 0.22100
H 	H 	0.45932 0.92669 0.54473 0.08400
H 	H 	0.39026 0.97308 0.53331 0.11800
Zn	Zn	0.14052 0.12290 0.98716 1.19700
Zn	Zn	0.02008 0.06529 0.87730 1.20800
O 	O 	0.02393 0.95751 0.80310 -0.44600
O 	O 	0.98868 0.02880 0.80000 -0.36400
O 	O 	0.02344 0.87845 0.87682 -0.42100
C 	C 	0.20689 0.09848 0.94343 0.30600
O 	O 	0.96630 0.97658 0.86504 -0.87900
C 	C 	0.13222 0.20540 0.93261 0.34000
O 	O 	0.21138 0.11609 0.98805 -0.36700
O 	O 	0.15056 0.07225 0.89803 -0.27100
O 	O 	0.05230 0.08355 0.95347 -0.76300
O 	O 	0.08130 0.97340 0.95411 -0.45500
O 	O 	0.07189 0.15728 0.89146 -0.37900
O 	O 	0.16084 0.20385 0.97792 -0.38500
Zn	Zn	0.86004 0.88451 0.90028 1.19000
Zn	Zn	0.97624 0.92453 0.99894 1.19500
Zn	Zn	0.99697 0.99527 0.93737 1.20800
C 	C 	0.85850 0.78855 0.94255 0.33500
C 	C 	0.83620 0.94596 0.97002 0.33800
O 	O 	0.91424 0.02392 0.92241 -0.42500
Zn	Zn	0.99474 0.05517 0.03301 1.22200
O 	O 	0.92097 0.83205 0.98223 -0.37700
O 	O 	0.82655 0.79988 0.90391 -0.38600
O 	O 	0.81263 0.91569 0.91942 -0.38300
O 	O 	0.89707 0.96617 0.00651 -0.41700
C 	C 	0.02684 0.01551 0.11381 0.36500
O 	O 	0.94197 0.90731 0.92204 -0.75900
C 	C 	0.91974 0.07505 0.95436 0.29800
O 	O 	0.01074 0.95862 0.07903 -0.39300
O 	O 	0.03642 0.06613 0.10450 -0.40600
O 	O 	0.96197 0.10281 0.00579 -0.37400
O 	O 	0.02776 0.01222 0.00919 -0.86200
Zn	Zn	0.98855 0.91880 0.83882 1.19600
C 	C 	0.00699 0.99237 0.78115 0.33700
C 	C 	0.07139 0.91609 0.92769 0.33500
H 	H 	0.07557 0.03338 0.03427 0.20100
H 	H 	0.91890 0.95877 0.84195 0.17200
Zn	Zn	0.18584 0.17306 0.52991 1.20300
Zn	Zn	0.07824 0.11504 0.41208 1.21400
O 	O 	0.07463 0.00465 0.33037 -0.40100
O 	O 	0.04977 0.08446 0.33558 -0.38100
O 	O 	0.07380 0.92471 0.40456 -0.43200
C 	C 	0.26483 0.15020 0.50156 0.32700
O 	O 	0.01960 0.02438 0.39370 -0.85700
C 	C 	0.19070 0.25743 0.47746 0.32900
O 	O 	0.26457 0.17533 0.54287 -0.39400
O 	O 	0.20906 0.10954 0.45419 -0.25200
O 	O 	0.09712 0.12699 0.48451 -0.73000
O 	O 	0.13300 0.01894 0.48263 -0.35500
O 	O 	0.13454 0.20910 0.43162 -0.35400
O 	O 	0.20765 0.25511 0.52247 -0.40600
Zn	Zn	0.90726 0.90832 0.41788 1.19300
Zn	Zn	0.02594 0.95563 0.51840 1.22100
Zn	Zn	0.04450 0.03565 0.46353 1.22600
C 	C 	0.92367 0.81164 0.45534 0.35000
C 	C 	0.87227 0.95010 0.48497 0.31500
O 	O 	0.95338 0.05078 0.44205 -0.42500
Zn	Zn	0.02268 0.07364 0.55281 1.21400
O 	O 	0.98239 0.86063 0.49822 -0.36300
O 	O 	0.88589 0.82179 0.41864 -0.34400
O 	O 	0.84960 0.92167 0.43450 -0.41300
O 	O 	0.93349 0.97274 0.52166 -0.44600
C 	C 	0.05775 0.02778 0.62912 0.36000
O 	O 	0.99258 0.94456 0.44322 -0.76200
C 	C 	0.94541 0.09052 0.47096 0.33600
O 	O 	0.05665 0.98122 0.59663 -0.34800
O 	O 	0.06142 0.07958 0.62292 -0.41100
O 	O 	0.97376 0.10850 0.52184 -0.42800
O 	O 	0.06883 0.04710 0.53304 -0.86800
Zn	Zn	0.04086 0.96653 0.36716 1.19600
C 	C 	0.06127 0.04364 0.31195 0.34300
C 	C 	0.12306 0.96193 0.45516 0.30800
H 	H 	0.11655 0.07321 0.56098 0.22700
H 	H 	0.97284 0.00829 0.36928 0.18900
C 	C 	0.04503 0.01686 0.66760 -0.03300
C 	C 	0.09425 0.02674 0.71593 0.19200
C 	C 	0.08121 0.01801 0.75268 0.02300
C 	C 	0.01919 0.99929 0.74143 -0.09000
C 	C 	0.96975 0.98841 0.69263 0.21700
C 	C 	0.98318 0.99820 0.65642 -0.05100
H 	H 	0.11955 0.02671 0.79031 0.11400
H 	H 	0.94537 0.99112 0.61938 0.10900
Cl	Cl	0.17292 0.05187 0.73164 -0.18900
Cl	Cl	0.88994 0.95965 0.67527 -0.27100
C 	C 	0.03617 0.02320 0.16464 -0.08400
C 	C 	0.00354 0.04626 0.18106 0.21300
C 	C 	0.01170 0.05200 0.22880 -0.01700
C 	C 	0.05537 0.03903 0.26246 -0.05400
C 	C 	0.09205 0.02104 0.24800 0.18300
C 	C 	0.08025 0.01066 0.19828 0.01100
H 	H 	0.98412 0.06689 0.23984 0.12100
H 	H 	0.10747 0.99557 0.18684 0.07900
Cl	Cl	0.95347 0.06991 0.14302 -0.21300
Cl	Cl	0.15753 0.01835 0.29357 -0.19300
C 	C 	0.24679 0.37965 0.51978 0.08900
C 	C 	0.22820 0.32083 0.48029 -0.00700
C 	C 	0.24783 0.32355 0.44559 -0.05700
C 	C 	0.28241 0.38523 0.44948 0.01900
C 	C 	0.30046 0.44381 0.48875 0.11200
C 	C 	0.28410 0.44142 0.52526 -0.12600
C 	C 	0.30546 0.50458 0.56952 0.79400
H 	H 	0.23158 0.37701 0.54604 0.09900
H 	H 	0.29446 0.38774 0.42134 0.11100
C 	C 	0.22807 0.26091 0.40187 0.77600
F 	F 	0.28865 0.49202 0.60306 -0.41500
F 	F 	0.27590 0.53548 0.54770 -0.42700
F 	F 	0.37261 0.54706 0.60016 -0.42500
F 	F 	0.16311 0.22982 0.36017 -0.42400
F 	F 	0.23661 0.21789 0.42081 -0.45600
F 	F 	0.26541 0.27515 0.38235 -0.41200
C 	C 	0.75682 0.87498 0.52094 0.00400
C 	C 	0.73138 0.91532 0.52089 0.11200
C 	C 	0.75585 0.97043 0.51314 -0.14100
C 	C 	0.80282 0.98144 0.50213 0.06700
C 	C 	0.82582 0.93896 0.49946 -0.01800
C 	C 	0.80334 0.88553 0.50966 -0.06100
C 	C 	0.82497 0.83688 0.50455 0.76900
H 	H 	0.73827 0.83368 0.52785 0.10600
H 	H 	0.82114 0.02266 0.49511 0.08900
C 	C 	0.73076 0.01634 0.51522 0.82500
F 	F 	0.79947 0.78995 0.51797 -0.41100
F 	F 	0.89229 0.86998 0.53810 -0.46000
F 	F 	0.80370 0.80414 0.45238 -0.43900
F 	F 	0.73656 0.03897 0.56248 -0.41500
F 	F 	0.66572 0.98255 0.47280 -0.42100
F 	F 	0.76556 0.07091 0.51248 -0.42400
C 	C 	0.26208 0.95011 0.55030 0.02500
C 	C 	0.27050 0.91509 0.51477 0.11300
C 	C 	0.22945 0.89395 0.45962 -0.11300
C 	C 	0.18419 0.91298 0.44197 0.10400
C 	C 	0.17407 0.94627 0.47706 0.00900
C 	C 	0.21133 0.96214 0.53158 -0.05900
C 	C 	0.19738 0.99122 0.56984 0.77500
H 	H 	0.29417 0.96648 0.59248 0.10000
H 	H 	0.15681 0.90221 0.40071 0.10400
C 	C 	0.23555 0.85357 0.41968 0.79400
F 	F 	0.22641 0.98597 0.61570 -0.42400
F 	F 	0.13089 0.95777 0.54621 -0.52500
F 	F 	0.22172 0.05752 0.58447 -0.45200
F 	F 	0.23720 0.80132 0.42743 -0.42800
F 	F 	0.29213 0.89358 0.42551 -0.40300
F 	F 	0.18308 0.82718 0.36766 -0.40300
C 	C 	0.21878 0.33572 0.90452 0.00100
C 	C 	0.23210 0.39257 0.94198 0.11400
C 	C 	0.20762 0.38712 0.97314 -0.15300
C 	C 	0.17405 0.32491 0.96866 0.09700
C 	C 	0.16220 0.26820 0.93225 -0.00300
C 	C 	0.18301 0.27303 0.89857 -0.04900
C 	C 	0.16755 0.21176 0.85666 0.77100
H 	H 	0.23673 0.34064 0.88022 0.10000
H 	H 	0.15745 0.32037 0.99386 0.08200
C 	C 	0.21788 0.44760 0.01155 0.82700
F 	F 	0.19230 0.22712 0.82820 -0.43000
F 	F 	0.10059 0.16830 0.82076 -0.43200
F 	F 	0.19474 0.18091 0.88091 -0.43300
F 	F 	0.19378 0.47828 0.98464 -0.44100
F 	F 	0.28382 0.49177 0.05166 -0.42000
F 	F 	0.18603 0.43099 0.03505 -0.40800
C 	C 	0.67894 0.89571 0.96015 -0.01800
C 	C 	0.69427 0.88499 0.00428 0.14200
C 	C 	0.75870 0.90291 0.04116 -0.12200
C 	C 	0.80586 0.92794 0.03125 0.14000
C 	C 	0.78962 0.93462 0.98503 -0.00800
C 	C 	0.72648 0.92289 0.95107 -0.03500
C 	C 	0.70762 0.93533 0.90345 0.77800
H 	H 	0.62927 0.88175 0.93222 0.10400
H 	H 	0.85404 0.93765 0.05746 0.10600
C 	C 	0.77672 0.89331 0.09013 0.80300
F 	F 	0.65825 0.94777 0.89107 -0.43100
F 	F 	0.68542 0.88007 0.85962 -0.42000
F 	F 	0.75979 0.98955 0.91375 -0.44200
F 	F 	0.73878 0.82722 0.07466 -0.40000
F 	F 	0.76621 0.93032 0.12171 -0.43400
F 	F 	0.84176 0.91303 0.12084 -0.42400
C 	C 	0.15401 0.82313 0.96247 -0.00800
C 	C 	0.21722 0.86861 0.97960 0.11900
C 	C 	0.23528 0.93375 0.98810 -0.16300
C 	C 	0.18680 0.94883 0.97171 0.09000
C 	C 	0.12256 0.90200 0.95153 -0.04400
C 	C 	0.10722 0.84048 0.95087 -0.05700
C 	C 	0.04049 0.79226 0.93589 0.77500
H 	H 	0.14099 0.77374 0.95708 0.10500
H 	H 	0.19845 0.99626 0.97306 0.04700
C 	C 	0.30507 0.98615 0.01169 0.80800
F 	F 	0.04242 0.74677 0.95384 -0.41000
F 	F 	0.99587 0.75835 0.88101 -0.42400
F 	F 	0.01955 0.82557 0.95853 -0.47900
F 	F 	0.31654 0.97597 0.97296 -0.43700
F 	F 	0.34913 0.98363 0.05394 -0.42900
F 	F 	0.31621 0.04912 0.03073 -0.40300
C 	C 	0.86206 0.18286 0.43697 0.00400
C 	C 	0.79646 0.13234 0.40932 0.10800
C 	C 	0.77905 0.06603 0.39492 -0.13100
C 	C 	0.82877 0.05264 0.41313 0.08100
C 	C 	0.89467 0.10398 0.44411 -0.02900
C 	C 	0.91138 0.16886 0.45297 -0.06000
C 	C 	0.98196 0.22375 0.48159 0.76800
H 	H 	0.87469 0.23336 0.44718 0.10000
H 	H 	0.81652 0.00272 0.40502 0.07200
C 	C 	0.70790 0.01010 0.36212 0.80400
F 	F 	0.98618 0.27822 0.47486 -0.42000
F 	F 	0.01155 0.20178 0.46172 -0.46000
F 	F 	0.01558 0.24335 0.53555 -0.42700
F 	F 	0.67159 0.01295 0.31660 -0.41800
F 	F 	0.68331 0.01565 0.39198 -0.39400
F 	F 	0.70060 0.94867 0.34638 -0.43600
C 	C 	0.82644 0.62581 0.39680 0.01200
C 	C 	0.82334 0.62040 0.43862 0.10700
C 	C 	0.85990 0.67769 0.48830 -0.11800
C 	C 	0.89769 0.73975 0.49445 0.09700
C 	C 	0.89694 0.74553 0.45138 0.01200
C 	C 	0.86532 0.68778 0.40345 -0.06000
C 	C 	0.87167 0.69177 0.35893 0.77500
H 	H 	0.79848 0.58154 0.35903 0.10200
H 	H 	0.92593 0.78402 0.53219 0.12500
C 	C 	0.85767 0.67280 0.53431 0.79700
F 	F 	0.85942 0.63272 0.32653 -0.41400
F 	F 	0.93422 0.74111 0.37950 -0.43100
F 	F 	0.82713 0.70481 0.32803 -0.42400
F 	F 	0.89479 0.73438 0.57862 -0.40300
F 	F 	0.88176 0.63477 0.54905 -0.42900
F 	F 	0.79392 0.64390 0.51900 -0.41300
C 	C 	0.35772 0.24792 0.51973 0.09600
C 	C 	0.32592 0.18064 0.50570 0.00200
C 	C 	0.34791 0.14158 0.48915 -0.05800
C 	C 	0.39527 0.16827 0.47982 0.01000
C 	C 	0.42422 0.23441 0.49059 0.10900
C 	C 	0.40725 0.27560 0.51267 -0.12600
C 	C 	0.43876 0.34771 0.52546 0.79200
H 	H 	0.34106 0.27762 0.53316 0.08300
H 	H 	0.40909 0.13739 0.46337 0.10700
C 	C 	0.31911 0.07075 0.47928 0.77200
F 	F 	0.42262 0.38148 0.55350 -0.43300
F 	F 	0.41781 0.35137 0.47856 -0.42400
F 	F 	0.50614 0.37912 0.55632 -0.43000
F 	F 	0.25877 0.03043 0.43044 -0.41500
F 	F 	0.31197 0.06636 0.51911 -0.43700
F 	F 	0.35910 0.04813 0.47894 -0.41200
C 	C 	0.81252 0.14737 0.93627 0.01900
C 	C 	0.78689 0.13585 0.88383 0.11100
C 	C 	0.80708 0.10776 0.85534 -0.12800
C 	C 	0.85074 0.08866 0.87947 0.08600
C 	C 	0.87557 0.09852 0.93179 0.00700
C 	C 	0.85637 0.12891 0.96096 -0.05900
C 	C 	0.88230 0.14255 0.01822 0.79900
H 	H 	0.79805 0.17115 0.95793 0.10000
H 	H 	0.86576 0.06619 0.85763 0.06000
C 	C 	0.78138 0.09720 0.79901 0.79300
F 	F 	0.94790 0.19230 0.05214 -0.41500
F 	F 	0.87364 0.08603 0.02258 -0.42000
F 	F 	0.84989 0.16317 0.03527 -0.40300
F 	F 	0.79338 0.15620 0.79814 -0.42100
F 	F 	0.71474 0.05112 0.76538 -0.42800
F 	F 	0.81104 0.07453 0.77968 -0.43800
C 	C 	0.84168 0.67790 0.92650 0.08000
C 	C 	0.82482 0.72382 0.93917 -0.00500
C 	C 	0.77247 0.70568 0.94434 -0.06200
C 	C 	0.73233 0.63927 0.92948 0.00600
C 	C 	0.74795 0.59276 0.91533 0.10200
C 	C 	0.80542 0.61301 0.91690 -0.12400
C 	C 	0.82709 0.56529 0.90691 0.79200
H 	H 	0.88233 0.69248 0.92321 0.11600
H 	H 	0.68904 0.62362 0.92920 0.09600
C 	C 	0.76049 0.75729 0.96689 0.75500
F 	F 	0.88983 0.59781 0.92002 -0.39700
F 	F 	0.78517 0.51828 0.85359 -0.42300
F 	F 	0.82691 0.53397 0.93756 -0.43000
F 	F 	0.73531 0.77741 0.93000 -0.44300
F 	F 	0.81877 0.81119 0.01314 -0.41900
F 	F 	0.71683 0.73293 0.97937 -0.42500
C 	C 	0.36745 0.18338 0.96005 0.02000
C 	C 	0.35777 0.13138 0.92084 0.10700
C 	C 	0.30491 0.06606 0.89690 -0.11400
C 	C 	0.25800 0.05550 0.90790 0.09200
C 	C 	0.26461 0.10851 0.94379 0.02600
C 	C 	0.32198 0.17258 0.97268 -0.07000
C 	C 	0.33488 0.22936 0.01673 0.81100
H 	H 	0.40954 0.23274 0.97946 0.09500
H 	H 	0.21481 0.00644 0.88695 0.08900
C 	C 	0.29675 0.00814 0.85781 0.80900
F 	F 	0.39381 0.28710 0.04030 -0.41500
F 	F 	0.33735 0.21329 0.05609 -0.40600
F 	F 	0.28588 0.24196 0.99620 -0.44000
F 	F 	0.35468 0.00981 0.87948 -0.41200
F 	F 	0.27954 0.01160 0.81109 -0.41300
F 	F 	0.24874 0.94804 0.84558 -0.42800
